*----------------------------------------------------------------------
* SPICE Model generated by Murata Manufacturing Co., Ltd.
* Copyright(C) Murata Manufacturing Co., Ltd.
* Description :2012M(0805)/X7R(-55to125[deg])/1.00e-02[uF]/250[V]
* Murata P/N :GRM21BR72E103KW03
* Property : C = 1.00e-02[uF]
* Data Generated on Nov 26, 2021
*----------------------------------------------------------------------
* Applicable Conditions:
*   Frequency Range = 100[kHz]-6[GHz]
*   Temperature = 25 degC
*   DC Bias Voltage = 0V
*   Small Signal Operation
*----------------------------------------------------------------------
.SUBCKT GRM21BR72E103KW03 Port1 Port2
C01 Port1 N01 9.57e-09
R01 Port1 N01 1.00e+10
L02 N01 N02 6.90e-11
R03 N02 N03 7.09e-02
C04 N03 N04 6.09e-07
R04 N03 N04 3.73e+00
C05 N04 N05 7.36e-07
R05 N04 N05 3.60e-01
C06 N05 N06 7.15e-07
R06 N05 N06 6.54e-02
C07 N06 N07 2.77e-07
R07 N06 N07 2.62e-02
L08 N07 N08 3.29e-11
R08 N07 N08 1.45e-01
L09 N08 N09 2.74e-11
R09 N08 N09 2.06e-01
C10 N09 N10 1.34e-12
L10 N09 N10 3.10e-10
R10 N09 N10 1.74e+01
C11 N10 N11 1.21e-11
L11 N10 N11 1.72e-10
R11 N10 N11 1.24e+01
C12 N11 N12 6.25e-09
L12 N11 N12 4.82e-11
R12 N11 N12 1.01e-01
C13 N12 Port2 1.88e-07
L13 N12 Port2 5.25e-12
R13 N12 Port2 1.26e-02
.ENDS GRM21BR72E103KW03
