*----------------------------------------------------------------------
* SPICE Model generated by Murata Manufacturing Co., Ltd.
* Copyright(C) Murata Manufacturing Co., Ltd.
* Description :2012M(0805)/X7R(-55to125[deg])/2.20e-03[uF]/250[V]
* Murata P/N :GRM21AR72E222KW01
* Property : C = 2.20e-03[uF]
* Data Generated on Nov 26, 2021
*----------------------------------------------------------------------
* Applicable Conditions:
*   Frequency Range = 100[kHz]-6[GHz]
*   Temperature = 25 degC
*   DC Bias Voltage = 0V
*   Small Signal Operation
*----------------------------------------------------------------------
.SUBCKT GRM21AR72E222KW01 Port1 Port2
C01 Port1 N01 2.17e-09
R01 Port1 N01 1.00e+10
L02 N01 N02 9.00e-11
R03 N02 N03 1.69e-01
C04 N03 N04 6.88e-08
R04 N03 N04 4.63e+01
C05 N04 N05 1.58e-07
R05 N04 N05 1.44e+00
C06 N05 N06 1.06e-07
R06 N05 N06 3.40e-01
C07 N06 N07 3.66e-08
R07 N06 N07 1.17e-01
L08 N07 N08 8.15e-11
R08 N07 N08 5.12e-01
C09 N08 N09 2.89e-12
L09 N08 N09 9.37e-11
R09 N08 N09 2.20e+01
C10 N09 N10 4.38e-12
L10 N09 N10 1.33e-10
R10 N09 N10 1.30e+01
C11 N10 Port2 6.22e-12
L11 N10 Port2 2.68e-10
R11 N10 Port2 1.65e+01
.ENDS GRM21AR72E222KW01
