*----------------------------------------------------------------------
* SPICE Model generated by Murata Manufacturing Co., Ltd.
* Copyright(C) Murata Manufacturing Co., Ltd.
* Description :2012M(0805)/X7R(-55to125[deg])/2.20e-02[uF]/250[V]
* Murata P/N :GRM21BR72E223KW03
* Property : C = 2.20e-02[uF]
* Data Generated on Nov 26, 2021
*----------------------------------------------------------------------
* Applicable Conditions:
*   Frequency Range = 100[kHz]-6[GHz]
*   Temperature = 25 degC
*   DC Bias Voltage = 0V
*   Small Signal Operation
*----------------------------------------------------------------------
.SUBCKT GRM21BR72E223KW03 Port1 Port2
C01 Port1 N01 2.12e-08
R01 Port1 N01 4.55e+09
L02 N01 N02 1.28e-10
R03 N02 N03 4.54e-02
C04 N03 N04 1.23e-06
R04 N03 N04 1.24e+00
C05 N04 N05 1.08e-06
R05 N04 N05 9.07e-02
L06 N05 N06 1.29e-10
R06 N05 N06 1.68e-01
C07 N06 N07 2.93e-08
L07 N06 N07 4.25e-11
R07 N06 N07 6.19e-02
C08 N07 N08 1.22e-11
L08 N07 N08 1.32e-10
R08 N07 N08 1.31e+01
C09 N08 N09 4.79e-12
L09 N08 N09 1.38e-10
R09 N08 N09 1.04e+01
C10 N09 Port2 5.02e-12
L10 N09 Port2 8.19e-11
R10 N09 Port2 1.80e+01
.ENDS GRM21BR72E223KW03
