* LED: DURIS S 5 GA PSLM31.23
* (c) 2022, OSRAM Opto Semiconductors GmbH. All rights reserved.

* Valid for Vf(binning) = 2.11 V and If(binning) = 100 mA
* VERSION: 5
.MODEL GA_PSLM31.23_typ D
+ IS=1.231189741690523e-18
+ N=1.907974713647332
+ RS=2.001581536170645
+ Tnom=25
+ EG=2.214897152351978
+ XTI=1.0000000000000000
+ TRS1=-0.00236718264992308
+ TRS2=2.031005784632838e-05
+ mfg=OSRAM_OS

* Valid for bin 'F' with Vf(binning) = 2.00 V and If(binning) = 100 mA
* VERSION: 5
.MODEL GA_PSLM31.23_F-max D
+ IS=1.231189741688177e-18
+ N=1.907974713647235
+ RS=0.9132880398291909
+ Tnom=25
+ EG=2.214897171799656
+ XTI=1.0000000000000011
+ TRS1=-0.005187967781296359
+ TRS2=4.451195432366771e-05
+ mfg=OSRAM_OS

* Valid for bin 'G' with Vf(binning) = 2.00 V and If(binning) = 100 mA
* VERSION: 5
.MODEL GA_PSLM31.23_G-min D
+ IS=1.231189741688177e-18
+ N=1.907974713647235
+ RS=0.9132880398291909
+ Tnom=25
+ EG=2.214897171799656
+ XTI=1.0000000000000011
+ TRS1=-0.005187967781296359
+ TRS2=4.451195432366771e-05
+ mfg=OSRAM_OS

* Valid for bin 'G' with Vf(binning) = 2.10 V and If(binning) = 100 mA
* VERSION: 5
.MODEL GA_PSLM31.23_G-mid D
+ IS=1.231189741690443e-18
+ N=1.907974713647328
+ RS=1.91328803982917
+ Tnom=25
+ EG=2.214897176188377
+ XTI=1.0000000000000000
+ TRS1=-0.002476422037632836
+ TRS2=2.124731141247322e-05
+ mfg=OSRAM_OS

* Valid for bin 'G' with Vf(binning) = 2.20 V and If(binning) = 100 mA
* VERSION: 5
.MODEL GA_PSLM31.23_G-max D
+ IS=1.231189741690886e-18
+ N=1.907974713647346
+ RS=2.913288039829172
+ Tnom=25
+ EG=2.214897134166397
+ XTI=1.0000000000000000
+ TRS1=-0.001626378497657423
+ TRS2=1.395407013857436e-05
+ mfg=OSRAM_OS

* Valid for bin 'H' with Vf(binning) = 2.20 V and If(binning) = 100 mA
* VERSION: 5
.MODEL GA_PSLM31.23_H-min D
+ IS=1.231189741690886e-18
+ N=1.907974713647346
+ RS=2.913288039829172
+ Tnom=25
+ EG=2.214897134166397
+ XTI=1.0000000000000000
+ TRS1=-0.001626378497657423
+ TRS2=1.395407013857436e-05
+ mfg=OSRAM_OS

* Valid for bin 'H' with Vf(binning) = 2.30 V and If(binning) = 100 mA
* VERSION: 5
.MODEL GA_PSLM31.23_H-mid D
+ IS=1.231189741691984e-18
+ N=1.907974713647393
+ RS=3.913288039829146
+ Tnom=25
+ EG=2.214897137397642
+ XTI=1.0000000000000000
+ TRS1=-0.001210774523879688
+ TRS2=1.038825475823912e-05
+ mfg=OSRAM_OS

* Valid for bin 'H' with Vf(binning) = 2.40 V and If(binning) = 100 mA
* VERSION: 5
.MODEL GA_PSLM31.23_H-max D
+ IS=1.231189741692236e-18
+ N=1.907974713647403
+ RS=4.913288039829141
+ Tnom=25
+ EG=2.214897127033634
+ XTI=1.0000000000000000
+ TRS1=-0.0009643460894873787
+ TRS2=8.273937388165484e-06
+ mfg=OSRAM_OS

