* LED: DURIS S 5 GD PSLM31.14
* (c) 2022, OSRAM Opto Semiconductors GmbH. All rights reserved.

* Valid for Vf(binning) = 2.85 V and If(binning) = 100 mA
* VERSION: 10
.MODEL GD_PSLM31.14_typ D
+ IS=3.258790806688868e-27
+ N=1.820693737587205
+ RS=1.020157205024695
+ Tnom=25
+ EG=3.153707573371801
+ XTI=1.0000000000000000
+ TRS1=-0.004641058613475191
+ TRS2=4.370659435503039e-05
+ mfg=OSRAM_OS

* Valid for bin 'K' with Vf(binning) = 2.80 V and If(binning) = 100 mA
* VERSION: 10
.MODEL GD_PSLM31.14_K-max D
+ IS=3.258790806687402e-27
+ N=1.820693737587191
+ RS=0.5477529331207602
+ Tnom=25
+ EG=3.153707559532752
+ XTI=1.0000000000000000
+ TRS1=-0.008643696875216296
+ TRS2=8.140093357856427e-05
+ mfg=OSRAM_OS

* Valid for bin 'L' with Vf(binning) = 2.80 V and If(binning) = 100 mA
* VERSION: 10
.MODEL GD_PSLM31.14_L-min D
+ IS=3.258790806687402e-27
+ N=1.820693737587191
+ RS=0.5477529331207602
+ Tnom=25
+ EG=3.153707559532752
+ XTI=1.0000000000000000
+ TRS1=-0.008643696875216296
+ TRS2=8.140093357856427e-05
+ mfg=OSRAM_OS

* Valid for bin 'L' with Vf(binning) = 2.90 V and If(binning) = 100 mA
* VERSION: 10
.MODEL GD_PSLM31.14_L-mid D
+ IS=3.258790806690254e-27
+ N=1.820693737587219
+ RS=1.547752933120761
+ Tnom=25
+ EG=3.153707572268216
+ XTI=1.0000000000000000
+ TRS1=-0.00305902167762645
+ TRS2=2.880795899385966e-05
+ mfg=OSRAM_OS

* Valid for bin 'L' with Vf(binning) = 3.00 V and If(binning) = 100 mA
* VERSION: 10
.MODEL GD_PSLM31.14_L-max D
+ IS=3.258790806687855e-27
+ N=1.820693737587195
+ RS=2.547752933120764
+ Tnom=25
+ EG=3.153707555086295
+ XTI=1.0000000000000000
+ TRS1=-0.001858347410180226
+ TRS2=1.750075423789183e-05
+ mfg=OSRAM_OS

* Valid for bin 'N' with Vf(binning) = 3.20 V and If(binning) = 100 mA
* VERSION: 10
.MODEL GD_PSLM31.14_N-min D
+ IS=3.258790806691188e-27
+ N=1.820693737587229
+ RS=4.547752933120749
+ Tnom=25
+ EG=3.153707564525824
+ XTI=1.0000000000000000
+ TRS1=-0.001041087777598403
+ TRS2=9.804315221976424e-06
+ mfg=OSRAM_OS

* Valid for bin 'N' with Vf(binning) = 3.30 V and If(binning) = 100 mA
* VERSION: 10
.MODEL GD_PSLM31.14_N-mid D
+ IS=3.258790806694893e-27
+ N=1.820693737587264
+ RS=5.547752933120734
+ Tnom=25
+ EG=3.153707590207794
+ XTI=1.0000000000000000
+ TRS1=-0.0008534284377327406
+ TRS2=8.0370572137356e-06
+ mfg=OSRAM_OS

* Valid for bin 'N' with Vf(binning) = 3.40 V and If(binning) = 100 mA
* VERSION: 10
.MODEL GD_PSLM31.14_N-max D
+ IS=3.258790806683377e-27
+ N=1.820693737587151
+ RS=6.547752933120781
+ Tnom=25
+ EG=3.153707577924754
+ XTI=1.0000000000000000
+ TRS1=-0.0007230891663328367
+ TRS2=6.80960216963704e-06
+ mfg=OSRAM_OS

