* LED: DURIS S 5 GT PSLM31.13
* (c) 2022, OSRAM Opto Semiconductors GmbH. All rights reserved.

* Valid for Vf(binning) = 2.70 V and If(binning) = 100 mA
* VERSION: 8
.MODEL GT_PSLM31.13_typ D
+ IS=1.816230880872958e-13
+ N=3.54361772009715
+ RS=2.357575857104153
+ Tnom=25
+ EG=3.008406414630597
+ XTI=1.0000000000000000
+ TRS1=-0.003623903464839305
+ TRS2=3.009884615281749e-05
+ mfg=OSRAM_OS

* Valid for bin 'J' with Vf(binning) = 2.50 V and If(binning) = 100 mA
* VERSION: 8
.MODEL GT_PSLM31.13_J-mid D
+ IS=1.816230880872007e-13
+ N=3.543617720097075
+ RS=0.3867553001790671
+ Tnom=25
+ EG=3.008406405648455
+ XTI=1.0000000000000229
+ TRS1=-0.02209052279335047
+ TRS2=0.0001834759859942067
+ mfg=OSRAM_OS

* Valid for bin 'J' with Vf(binning) = 2.60 V and If(binning) = 100 mA
* VERSION: 8
.MODEL GT_PSLM31.13_J-max D
+ IS=1.81623088087535e-13
+ N=3.543617720097337
+ RS=1.386755300178949
+ Tnom=25
+ EG=3.00840647404773
+ XTI=1.0000000000000000
+ TRS1=-0.006160874026462619
+ TRS2=5.117002630251047e-05
+ mfg=OSRAM_OS

* Valid for bin 'K' with Vf(binning) = 2.60 V and If(binning) = 100 mA
* VERSION: 8
.MODEL GT_PSLM31.13_K-min D
+ IS=1.81623088087535e-13
+ N=3.543617720097337
+ RS=1.386755300178949
+ Tnom=25
+ EG=3.00840647404773
+ XTI=1.0000000000000000
+ TRS1=-0.006160874026462619
+ TRS2=5.117002630251047e-05
+ mfg=OSRAM_OS

* Valid for bin 'K' with Vf(binning) = 2.70 V and If(binning) = 100 mA
* VERSION: 8
.MODEL GT_PSLM31.13_K-mid D
+ IS=1.816230880871978e-13
+ N=3.54361772009707
+ RS=2.386755300179068
+ Tnom=25
+ EG=3.008406382997804
+ XTI=1.0000000000000000
+ TRS1=-0.003579599174616799
+ TRS2=2.973086919056163e-05
+ mfg=OSRAM_OS

* Valid for bin 'K' with Vf(binning) = 2.80 V and If(binning) = 100 mA
* VERSION: 8
.MODEL GT_PSLM31.13_K-max D
+ IS=1.816230880875231e-13
+ N=3.543617720097321
+ RS=3.386755300178976
+ Tnom=25
+ EG=3.008406397046042
+ XTI=1.0000000000000000
+ TRS1=-0.002522658632975085
+ TRS2=2.095229984516067e-05
+ mfg=OSRAM_OS

* Valid for bin 'L' with Vf(binning) = 2.80 V and If(binning) = 100 mA
* VERSION: 8
.MODEL GT_PSLM31.13_L-min D
+ IS=1.816230880875231e-13
+ N=3.543617720097321
+ RS=3.386755300178976
+ Tnom=25
+ EG=3.008406397046042
+ XTI=1.0000000000000000
+ TRS1=-0.002522658632975085
+ TRS2=2.095229984516067e-05
+ mfg=OSRAM_OS

* Valid for bin 'L' with Vf(binning) = 2.90 V and If(binning) = 100 mA
* VERSION: 8
.MODEL GT_PSLM31.13_L-mid D
+ IS=1.816230880872854e-13
+ N=3.543617720097145
+ RS=4.386755300179006
+ Tnom=25
+ EG=3.008406381057587
+ XTI=1.0000000000000000
+ TRS1=-0.001947596111978263
+ TRS2=1.617603630135777e-05
+ mfg=OSRAM_OS

* Valid for bin 'L' with Vf(binning) = 3.00 V and If(binning) = 100 mA
* VERSION: 8
.MODEL GT_PSLM31.13_L-max D
+ IS=1.816230880874295e-13
+ N=3.543617720097254
+ RS=5.386755300178974
+ Tnom=25
+ EG=3.008406425190539
+ XTI=1.0000000000000000
+ TRS1=-0.001586042996787849
+ TRS2=1.317310540666085e-05
+ mfg=OSRAM_OS

* Valid for bin 'M' with Vf(binning) = 3.00 V and If(binning) = 100 mA
* VERSION: 8
.MODEL GT_PSLM31.13_M-min D
+ IS=1.816230880874295e-13
+ N=3.543617720097254
+ RS=5.386755300178974
+ Tnom=25
+ EG=3.008406425190539
+ XTI=1.0000000000000000
+ TRS1=-0.001586042996787849
+ TRS2=1.317310540666085e-05
+ mfg=OSRAM_OS

* Valid for bin 'M' with Vf(binning) = 3.10 V and If(binning) = 100 mA
* VERSION: 8
.MODEL GT_PSLM31.13_M-mid D
+ IS=1.816230880874206e-13
+ N=3.543617720097246
+ RS=6.386755300178984
+ Tnom=25
+ EG=3.008406392528958
+ XTI=1.0000000000000036
+ TRS1=-0.001337710114071172
+ TRS2=1.111054170562496e-05
+ mfg=OSRAM_OS

* Valid for bin 'M' with Vf(binning) = 3.20 V and If(binning) = 100 mA
* VERSION: 8
.MODEL GT_PSLM31.13_M-max D
+ IS=1.81623088087379e-13
+ N=3.543617720097213
+ RS=7.386755300179018
+ Tnom=25
+ EG=3.008406382345151
+ XTI=1.0000000000000000
+ TRS1=-0.00115661433962918
+ TRS2=9.606424312004848e-06
+ mfg=OSRAM_OS

* Valid for bin 'N' with Vf(binning) = 3.20 V and If(binning) = 100 mA
* VERSION: 8
.MODEL GT_PSLM31.13_N-min D
+ IS=1.81623088087379e-13
+ N=3.543617720097213
+ RS=7.386755300179018
+ Tnom=25
+ EG=3.008406382345151
+ XTI=1.0000000000000000
+ TRS1=-0.00115661433962918
+ TRS2=9.606424312004848e-06
+ mfg=OSRAM_OS

* Valid for bin 'N' with Vf(binning) = 3.30 V and If(binning) = 100 mA
* VERSION: 8
.MODEL GT_PSLM31.13_N-mid D
+ IS=1.816230880874637e-13
+ N=3.543617720097281
+ RS=8.38675530017899
+ Tnom=25
+ EG=3.00840640905634
+ XTI=1.0000000000000000
+ TRS1=-0.00101870473607596
+ TRS2=8.460997387409469e-06
+ mfg=OSRAM_OS

* Valid for bin 'N' with Vf(binning) = 3.40 V and If(binning) = 100 mA
* VERSION: 8
.MODEL GT_PSLM31.13_N-max D
+ IS=1.81623088087272e-13
+ N=3.543617720097131
+ RS=9.386755300179043
+ Tnom=25
+ EG=3.008406420309432
+ XTI=1.0000000000000124
+ TRS1=-0.0009101789001914922
+ TRS2=7.559621109268458e-06
+ mfg=OSRAM_OS

* Valid for bin 'P' with Vf(binning) = 3.40 V and If(binning) = 100 mA
* VERSION: 8
.MODEL GT_PSLM31.13_P-min D
+ IS=1.81623088087272e-13
+ N=3.543617720097131
+ RS=9.386755300179043
+ Tnom=25
+ EG=3.008406420309432
+ XTI=1.0000000000000124
+ TRS1=-0.0009101789001914922
+ TRS2=7.559621109268458e-06
+ mfg=OSRAM_OS

* Valid for bin 'P' with Vf(binning) = 3.50 V and If(binning) = 100 mA
* VERSION: 8
.MODEL GT_PSLM31.13_P-mid D
+ IS=1.816230880874778e-13
+ N=3.543617720097289
+ RS=10.38675530017898
+ Tnom=25
+ EG=3.008406396076149
+ XTI=1.0000000000000000
+ TRS1=-0.0008225501380164617
+ TRS2=6.831807412351724e-06
+ mfg=OSRAM_OS

* Valid for bin 'P' with Vf(binning) = 3.60 V and If(binning) = 100 mA
* VERSION: 8
.MODEL GT_PSLM31.13_P-max D
+ IS=1.816230880872394e-13
+ N=3.543617720097101
+ RS=11.38675530017908
+ Tnom=25
+ EG=3.008406430245699
+ XTI=1.0000000000000007
+ TRS1=-0.0007503126605292801
+ TRS2=6.231829252143419e-06
+ mfg=OSRAM_OS

