*----------------------------------------------------------------------
* SPICE Model generated by Murata Manufacturing Co., Ltd.
* Copyright(C) Murata Manufacturing Co., Ltd.
* Description :4532M(1812)/X7R(-55to125[deg])/1.00e-01[uF]/1000[V]
* Murata P/N :GRM43DR7LW104KW01
* Property : C = 1.00e-01[uF]
* Data Generated on Nov 26, 2021
*----------------------------------------------------------------------
* Applicable Conditions:
*   Frequency Range = 100[kHz]-6[GHz]
*   Temperature = 25 degC
*   DC Bias Voltage = 0V
*   Small Signal Operation
*----------------------------------------------------------------------
.SUBCKT GRM43DR7LW104KW01 Port1 Port2
C01 Port1 N01 9.49e-08
R01 Port1 N01 1.00e+09
L02 N01 N02 1.00e-12
R03 N02 N03 4.00e-03
C04 N03 N04 8.02e-06
R04 N03 N04 2.84e-01
C05 N04 N05 1.05e-05
R05 N04 N05 3.79e-02
C06 N05 N06 8.25e-07
R06 N05 N06 1.13e-02
C07 N06 N07 8.55e-06
R07 N06 N07 9.80e-03
L08 N07 N08 2.26e-10
R08 N07 N08 1.25e-01
C09 N08 N09 1.32e-11
L09 N08 N09 1.24e-11
C10 N09 N10 1.88e-12
L10 N09 N10 4.08e-10
R10 N09 N10 6.68e+01
C11 N10 N11 1.62e-11
L11 N10 N11 1.24e-10
R11 N10 N11 1.02e+01
C12 N11 N12 1.01e-07
L12 N11 N12 6.32e-11
R12 N11 N12 7.20e-02
C13 N12 Port2 1.42e-07
L13 N12 Port2 1.24e-10
R13 N12 Port2 1.05e-01
.ENDS GRM43DR7LW104KW01
