*----------------------------------------------------------------------
* SPICE Model generated by Murata Manufacturing Co., Ltd.
* Copyright(C) Murata Manufacturing Co., Ltd.
* Description :5750M(2220)/X7R(-55to125[deg])/6.80e-01[uF]/250[V]
* Murata P/N :GRM55DR72E684KW01
* Property : C = 6.80e-01[uF]
* Data Generated on Nov 26, 2021
*----------------------------------------------------------------------
* Applicable Conditions:
*   Frequency Range = 100[kHz]-6[GHz]
*   Temperature = 25 degC
*   DC Bias Voltage = 0V
*   Small Signal Operation
*----------------------------------------------------------------------
.SUBCKT GRM55DR72E684KW01 Port1 Port2
C01 Port1 N01 6.19e-07
R01 Port1 N01 1.47e+08
L02 N01 N02 1.00e-12
R03 N02 N03 7.30e-03
C04 N03 N04 4.66e-05
R04 N03 N04 4.27e-02
C05 N04 N05 5.56e-05
R05 N04 N05 4.09e-03
C06 N05 N06 2.30e-05
R06 N05 N06 1.44e-03
L07 N06 N07 1.31e-10
R07 N06 N07 4.39e-02
C08 N07 N08 5.87e-12
L08 N07 N08 7.68e-11
R08 N07 N08 8.69e+00
C09 N08 N09 5.37e-12
L09 N08 N09 3.69e-10
R09 N08 N09 2.86e+01
C10 N09 N10 1.50e-11
L10 N09 N10 2.73e-10
R10 N09 N10 1.78e+01
C11 N10 N11 3.54e-07
L11 N10 N11 5.85e-11
R11 N10 N11 1.66e-02
C12 N11 Port2 1.21e-06
L12 N11 Port2 6.12e-11
R12 N11 Port2 1.68e-02
.ENDS GRM55DR72E684KW01
