*----------------------------------------------------------------------
* SPICE Model generated by Murata Manufacturing Co., Ltd.
* Copyright(C) Murata Manufacturing Co., Ltd.
* Description :5750M(2220)/X7R(-55to125[deg])/6.80e-02[uF]/1250[V]
* Murata P/N :GRM55DR7LX683KW01
* Property : C = 6.80e-02[uF]
* Data Generated on Nov 26, 2021
*----------------------------------------------------------------------
* Applicable Conditions:
*   Frequency Range = 100[kHz]-6[GHz]
*   Temperature = 25 degC
*   DC Bias Voltage = 0V
*   Small Signal Operation
*----------------------------------------------------------------------
.SUBCKT GRM55DR7LX683KW01 Port1 Port2
C01 Port1 N01 6.71e-08
R01 Port1 N01 1.47e+09
L02 N01 N02 1.00e-12
R03 N02 N03 1.70e-02
C04 N03 N04 5.80e-06
R04 N03 N04 3.92e-01
C05 N04 N05 7.56e-06
R05 N04 N05 5.26e-02
C06 N05 N06 5.02e-06
R06 N05 N06 1.44e-02
C07 N06 N07 2.65e-06
R07 N06 N07 4.00e-03
L08 N07 N08 5.56e-11
R08 N07 N08 1.07e-01
C09 N08 N09 7.00e-12
L09 N08 N09 7.39e-11
R09 N08 N09 8.59e+00
C10 N09 N10 6.22e-12
L10 N09 N10 3.57e-10
R10 N09 N10 2.46e+01
C11 N10 N11 1.56e-11
L11 N10 N11 3.07e-10
R11 N10 N11 1.92e+01
C12 N11 N12 2.77e-08
L12 N11 N12 6.36e-11
R12 N11 N12 5.75e-02
C13 N12 Port2 1.13e-07
L13 N12 Port2 6.24e-11
R13 N12 Port2 5.23e-02
.ENDS GRM55DR7LX683KW01
