*----------------------------------------------------------------------
* SPICE Model generated by Murata Manufacturing Co., Ltd.
* Copyright(C) Murata Manufacturing Co., Ltd.
* Description :5750M(2220)/X7R(-55to125[deg])/1.50e-01[uF]/1000[V]
* Murata P/N :GRM55DR7LW154KW01
* Property : C = 1.50e-01[uF]
* Data Generated on Nov 26, 2021
*----------------------------------------------------------------------
* Applicable Conditions:
*   Frequency Range = 100[kHz]-6[GHz]
*   Temperature = 25 degC
*   DC Bias Voltage = 0V
*   Small Signal Operation
*----------------------------------------------------------------------
.SUBCKT GRM55DR7LW154KW01 Port1 Port2
C01 Port1 N01 1.40e-07
R01 Port1 N01 6.67e+08
L02 N01 N02 1.00e-12
R03 N02 N03 7.50e-03
C04 N03 N04 1.02e-05
R04 N03 N04 1.95e-01
C05 N04 N05 1.49e-05
R05 N04 N05 2.14e-02
C06 N05 N06 1.13e-05
R06 N05 N06 5.89e-03
C07 N06 N07 2.01e-06
R07 N06 N07 4.96e-03
L08 N07 N08 1.49e-10
R08 N07 N08 1.04e-01
C09 N08 N09 8.07e-12
L09 N08 N09 4.35e-11
R09 N08 N09 3.82e+00
C10 N09 N10 4.48e-12
L10 N09 N10 4.02e-10
R10 N09 N10 2.70e+01
C11 N10 N11 1.69e-11
L11 N10 N11 2.50e-10
R11 N10 N11 1.78e+01
C12 N11 N12 8.70e-08
L12 N11 N12 5.95e-11
R12 N11 N12 4.64e-02
C13 N12 Port2 2.52e-07
L13 N12 Port2 7.34e-11
R13 N12 Port2 5.85e-02
.ENDS GRM55DR7LW154KW01
