*----------------------------------------------------------------------
* SPICE Model generated by Murata Manufacturing Co., Ltd.
* Copyright(C) Murata Manufacturing Co., Ltd.
* Description :5750M(2220)/X7R(-55to125[deg])/3.30e-01[uF]/250[V]
* Murata P/N :GRM55DR72E334KW01
* Property : C = 3.30e-01[uF]
* Data Generated on Nov 26, 2021
*----------------------------------------------------------------------
* Applicable Conditions:
*   Frequency Range = 100[kHz]-6[GHz]
*   Temperature = 25 degC
*   DC Bias Voltage = 0V
*   Small Signal Operation
*----------------------------------------------------------------------
.SUBCKT GRM55DR72E334KW01 Port1 Port2
C01 Port1 N01 3.09e-07
R01 Port1 N01 3.03e+08
L02 N01 N02 2.00e-12
R03 N02 N03 1.10e-02
C04 N03 N04 2.50e-05
R04 N03 N04 7.96e-02
C05 N04 N05 3.20e-05
R05 N04 N05 8.29e-03
C06 N05 N06 1.41e-05
R06 N05 N06 1.98e-03
L07 N06 N07 1.12e-10
R07 N06 N07 5.17e-02
C08 N07 N08 5.24e-12
L08 N07 N08 8.59e-11
R08 N07 N08 8.35e+00
C09 N08 N09 5.10e-12
L09 N08 N09 4.01e-10
R09 N08 N09 3.31e+01
C10 N09 N10 2.33e-11
L10 N09 N10 2.15e-10
R10 N09 N10 1.40e+01
C11 N10 N11 1.79e-07
L11 N10 N11 4.36e-11
R11 N10 N11 1.75e-02
C12 N11 Port2 5.66e-07
L12 N11 Port2 5.71e-11
R12 N11 Port2 2.06e-02
.ENDS GRM55DR72E334KW01
