* LED: Chip LED 0402 KR EGLP41.22
* (c) 2021, OSRAM Opto Semiconductors GmbH. All rights reserved.

* Valid for Vf(binning) = 1.93 V and If(binning) = 20.0 mA
* VERSION: 2
.MODEL KR_EGLP41.22_typ D
+ IS=2.333509356045799e-22
+ N=1.603032292775488
+ RS=1.611492310031589
+ Tnom=25
+ EG=2.261895628013424
+ XTI=1.0000000000000004
+ TRS1=-0.0159717264048399
+ TRS2=7.007761594019741e-05
+ mfg=OSRAM_OS

