* LED: Chip LED 0402 LB QH9G
* (c) 2022, OSRAM Opto Semiconductors GmbH. All rights reserved.

* Valid for Vf(binning) = 2.85 V and If(binning) = 5.00 mA
* VERSION: 5
.MODEL LB_QH9G_typ D
+ IS=1.674944598140004e-21
+ N=2.554685671403235
+ RS=11.82669716134881
+ Tnom=25
+ EG=3.377842311075707
+ XTI=1.0000000000000000
+ TRS1=-0.01175402132252774
+ TRS2=0.0001541795021225105
+ mfg=OSRAM_OS

* Valid for bin '3Y' with Vf(binning) = 2.80 V and If(binning) = 5.00 mA
* VERSION: 5
.MODEL LB_QH9G_3Y-max D
+ IS=1.674944598140032e-21
+ N=2.554685671403237
+ RS=1.562668442794076
+ Tnom=25
+ EG=3.398951667219108
+ XTI=1.0000000000000000
+ TRS1=-0.05854333367793026
+ TRS2=0.0007417333471172064
+ mfg=OSRAM_OS

* Valid for bin '3Z' with Vf(binning) = 2.80 V and If(binning) = 5.00 mA
* VERSION: 5
.MODEL LB_QH9G_3Z-min D
+ IS=1.674944598140032e-21
+ N=2.554685671403237
+ RS=1.562668442794076
+ Tnom=25
+ EG=3.398951667219108
+ XTI=1.0000000000000000
+ TRS1=-0.05854333367793026
+ TRS2=0.0007417333471172064
+ mfg=OSRAM_OS

* Valid for bin '3Z' with Vf(binning) = 2.85 V and If(binning) = 5.00 mA
* VERSION: 5
.MODEL LB_QH9G_3Z-mid D
+ IS=1.674944598138867e-21
+ N=2.554685671403193
+ RS=11.56266844279438
+ Tnom=25
+ EG=3.377842350776434
+ XTI=1.0000000000000495
+ TRS1=-0.0120224175704667
+ TRS2=0.0001577001159651947
+ mfg=OSRAM_OS

* Valid for bin '3Z' with Vf(binning) = 2.90 V and If(binning) = 5.00 mA
* VERSION: 5
.MODEL LB_QH9G_3Z-max D
+ IS=1.674944598138977e-21
+ N=2.554685671403196
+ RS=21.56266844279454
+ Tnom=25
+ EG=3.377842297589255
+ XTI=1.0000000000000000
+ TRS1=-0.006446854556353055
+ TRS2=8.4564516532848e-05
+ mfg=OSRAM_OS

* Valid for bin '4X' with Vf(binning) = 2.90 V and If(binning) = 5.00 mA
* VERSION: 5
.MODEL LB_QH9G_4X-min D
+ IS=1.674944598138977e-21
+ N=2.554685671403196
+ RS=21.56266844279454
+ Tnom=25
+ EG=3.377842297589255
+ XTI=1.0000000000000000
+ TRS1=-0.006446854556353055
+ TRS2=8.4564516532848e-05
+ mfg=OSRAM_OS

* Valid for bin '4X' with Vf(binning) = 2.95 V and If(binning) = 5.00 mA
* VERSION: 5
.MODEL LB_QH9G_4X-mid D
+ IS=1.674944598139566e-21
+ N=2.554685671403219
+ RS=31.56266844279424
+ Tnom=25
+ EG=3.377842294843867
+ XTI=1.0000000000001066
+ TRS1=-0.004404297363085802
+ TRS2=5.777193387149768e-05
+ mfg=OSRAM_OS

* Valid for bin '4X' with Vf(binning) = 3.00 V and If(binning) = 5.00 mA
* VERSION: 5
.MODEL LB_QH9G_4X-max D
+ IS=1.674944598140429e-21
+ N=2.55468567140325
+ RS=41.56266844279409
+ Tnom=25
+ EG=3.37784226910733
+ XTI=1.0000000000000000
+ TRS1=-0.003344620778536899
+ TRS2=4.387196503438475e-05
+ mfg=OSRAM_OS

* Valid for bin '4Y' with Vf(binning) = 3.00 V and If(binning) = 5.00 mA
* VERSION: 5
.MODEL LB_QH9G_4Y-min D
+ IS=1.674944598140429e-21
+ N=2.55468567140325
+ RS=41.56266844279409
+ Tnom=25
+ EG=3.37784226910733
+ XTI=1.0000000000000000
+ TRS1=-0.003344620778536899
+ TRS2=4.387196503438475e-05
+ mfg=OSRAM_OS

* Valid for bin '4Y' with Vf(binning) = 3.05 V and If(binning) = 5.00 mA
* VERSION: 5
.MODEL LB_QH9G_4Y-mid D
+ IS=1.674944598141374e-21
+ N=2.554685671403286
+ RS=51.56266844279381
+ Tnom=25
+ EG=3.377842318479674
+ XTI=1.0000000000000000
+ TRS1=-0.002695968169546304
+ TRS2=3.536348043418513e-05
+ mfg=OSRAM_OS

* Valid for bin '4Y' with Vf(binning) = 3.10 V and If(binning) = 5.00 mA
* VERSION: 5
.MODEL LB_QH9G_4Y-max D
+ IS=1.674944598141224e-21
+ N=2.554685671403281
+ RS=61.56266844279388
+ Tnom=25
+ EG=3.377842309105315
+ XTI=1.0000000000000553
+ TRS1=-0.002258044708217784
+ TRS2=2.96191576951896e-05
+ mfg=OSRAM_OS

