* LED: Chip LED 0402 LT QH9G
* (c) 2022, OSRAM Opto Semiconductors GmbH. All rights reserved.

* Valid for Vf(binning) = 2.85 V and If(binning) = 5.00 mA
* VERSION: 5
.MODEL LT_QH9G_typ D
+ IS=5.457101103943985e-38
+ N=1.340178012330091
+ RS=15.62206952902697
+ Tnom=25
+ EG=3.643375596216155
+ XTI=1.0000000000000000
+ TRS1=-0.000230910309763852
+ TRS2=6.912042194939364e-05
+ mfg=OSRAM_OS

* Valid for bin '3Y' with Vf(binning) = 2.80 V and If(binning) = 5.00 mA
* VERSION: 5
.MODEL LT_QH9G_3Y-max D
+ IS=5.457101103951396e-38
+ N=1.340178012330114
+ RS=5.614202403792699
+ Tnom=25
+ EG=3.643375509819426
+ XTI=1.0000000000000000
+ TRS1=-0.0006425378714556396
+ TRS2=0.0001923344101778264
+ mfg=OSRAM_OS

* Valid for bin '3Z' with Vf(binning) = 2.80 V and If(binning) = 5.00 mA
* VERSION: 5
.MODEL LT_QH9G_3Z-min D
+ IS=5.457101103951396e-38
+ N=1.340178012330114
+ RS=5.614202403792699
+ Tnom=25
+ EG=3.643375509819426
+ XTI=1.0000000000000000
+ TRS1=-0.0006425378714556396
+ TRS2=0.0001923344101778264
+ mfg=OSRAM_OS

* Valid for bin '3Z' with Vf(binning) = 2.85 V and If(binning) = 5.00 mA
* VERSION: 5
.MODEL LT_QH9G_3Z-mid D
+ IS=5.457101103948093e-38
+ N=1.340178012330103
+ RS=15.61420240379283
+ Tnom=25
+ EG=3.643375447754941
+ XTI=1.0000000000000167
+ TRS1=-0.0002310322662512194
+ TRS2=6.915527094779336e-05
+ mfg=OSRAM_OS

* Valid for bin '3Z' with Vf(binning) = 2.90 V and If(binning) = 5.00 mA
* VERSION: 5
.MODEL LT_QH9G_3Z-max D
+ IS=5.457101103947824e-38
+ N=1.340178012330103
+ RS=25.6142024037928
+ Tnom=25
+ EG=3.643375560520292
+ XTI=1.0000000000000000
+ TRS1=-0.0001408333191110491
+ TRS2=4.21564748500854e-05
+ mfg=OSRAM_OS

* Valid for bin '4X' with Vf(binning) = 2.90 V and If(binning) = 5.00 mA
* VERSION: 5
.MODEL LT_QH9G_4X-min D
+ IS=5.457101103947824e-38
+ N=1.340178012330103
+ RS=25.6142024037928
+ Tnom=25
+ EG=3.643375560520292
+ XTI=1.0000000000000000
+ TRS1=-0.0001408333191110491
+ TRS2=4.21564748500854e-05
+ mfg=OSRAM_OS

* Valid for bin '4X' with Vf(binning) = 2.95 V and If(binning) = 5.00 mA
* VERSION: 5
.MODEL LT_QH9G_4X-mid D
+ IS=5.457101103928985e-38
+ N=1.340178012330044
+ RS=35.61420240379306
+ Tnom=25
+ EG=3.643375510467503
+ XTI=1.0000000000000000
+ TRS1=-0.0001012892548395597
+ TRS2=3.031948897439734e-05
+ mfg=OSRAM_OS

* Valid for bin '4X' with Vf(binning) = 3.00 V and If(binning) = 5.00 mA
* VERSION: 5
.MODEL LT_QH9G_4X-max D
+ IS=5.457101103969074e-38
+ N=1.340178012330168
+ RS=45.61420240379256
+ Tnom=25
+ EG=3.643375364904235
+ XTI=1.0000000000000000
+ TRS1=-7.908482427893408e-05
+ TRS2=2.367254710631405e-05
+ mfg=OSRAM_OS

* Valid for bin '4Y' with Vf(binning) = 3.00 V and If(binning) = 5.00 mA
* VERSION: 5
.MODEL LT_QH9G_4Y-min D
+ IS=5.457101103969074e-38
+ N=1.340178012330168
+ RS=45.61420240379256
+ Tnom=25
+ EG=3.643375364904235
+ XTI=1.0000000000000000
+ TRS1=-7.908482427893408e-05
+ TRS2=2.367254710631405e-05
+ mfg=OSRAM_OS

* Valid for bin '4Y' with Vf(binning) = 3.05 V and If(binning) = 5.00 mA
* VERSION: 5
.MODEL LT_QH9G_4Y-mid D
+ IS=5.4571011039372e-38
+ N=1.340178012330069
+ RS=55.61420240379297
+ Tnom=25
+ EG=3.643375477168497
+ XTI=1.0000000000000044
+ TRS1=-6.486393360124871e-05
+ TRS2=1.941598361046949e-05
+ mfg=OSRAM_OS

* Valid for bin '4Y' with Vf(binning) = 3.10 V and If(binning) = 5.00 mA
* VERSION: 5
.MODEL LT_QH9G_4Y-max D
+ IS=5.45710110393354e-38
+ N=1.340178012330058
+ RS=65.61420240379307
+ Tnom=25
+ EG=3.64337551323544
+ XTI=1.0000000000000000
+ TRS1=-5.497816265154344e-05
+ TRS2=1.645687111843847e-05
+ mfg=OSRAM_OS

