*----------------------------------------------------------------------
* SPICE Model generated by Murata Manufacturing Co., Ltd.
* Copyright(C) Murata Manufacturing Co., Ltd.
* Description :3216M(1206)/X7R(-55to125[deg])/4.70e-04[uF]/1000[V]
* Murata P/N :GRM31BR73A471KW01
* Property : C = 4.70e-04[uF]
* Data Generated on Nov 26, 2021
*----------------------------------------------------------------------
* Applicable Conditions:
*   Frequency Range = 100[kHz]-6[GHz]
*   Temperature = 25 degC
*   DC Bias Voltage = 0V
*   Small Signal Operation
*----------------------------------------------------------------------
.SUBCKT GRM31BR73A471KW01 Port1 Port2
C01 Port1 N01 4.88e-10
R01 Port1 N01 1.00e+10
L02 N01 N02 2.00e-11
R03 N02 N03 3.45e-01
C04 N03 N04 5.70e-09
R04 N03 N04 5.58e+02
C05 N04 N05 3.81e-08
R05 N04 N05 5.97e+00
C06 N05 N06 2.50e-08
R06 N05 N06 1.41e+00
C07 N06 N07 1.24e-08
R07 N06 N07 5.82e-01
C08 N07 N08 2.86e-09
R08 N07 N08 3.48e-01
L09 N08 N09 2.81e-11
R09 N08 N09 3.29e-01
C10 N09 N10 8.87e-13
L10 N09 N10 3.16e-10
R10 N09 N10 3.20e+01
C11 N10 N11 7.01e-12
L11 N10 N11 2.05e-10
R11 N10 N11 1.48e+01
C12 N11 Port2 9.05e-12
L12 N11 Port2 5.29e-10
R12 N11 Port2 2.17e+01
.ENDS GRM31BR73A471KW01
