*----------------------------------------------------------------------
* SPICE Model generated by Murata Manufacturing Co., Ltd.
* Copyright(C) Murata Manufacturing Co., Ltd.
* Description :3216M(1206)/X7R(-55to125[deg])/4.70e-03[uF]/1000[V]
* Murata P/N :GRM31BR73A472KW01
* Property : C = 4.70e-03[uF]
* Data Generated on Nov 26, 2021
*----------------------------------------------------------------------
* Applicable Conditions:
*   Frequency Range = 100[kHz]-6[GHz]
*   Temperature = 25 degC
*   DC Bias Voltage = 0V
*   Small Signal Operation
*----------------------------------------------------------------------
.SUBCKT GRM31BR73A472KW01 Port1 Port2
C01 Port1 N01 4.58e-09
R01 Port1 N01 1.00e+10
L02 N01 N02 5.00e-12
R03 N02 N03 1.05e-01
C04 N03 N04 2.30e-07
R04 N03 N04 1.15e+01
C05 N04 N05 3.56e-07
R05 N04 N05 6.87e-01
C06 N05 N06 2.24e-07
R06 N05 N06 1.61e-01
C07 N06 N07 1.20e-07
R07 N06 N07 4.92e-02
C08 N07 N08 1.57e-12
L08 N07 N08 1.73e-10
R08 N07 N08 4.06e+01
C09 N08 N09 1.18e-12
L09 N08 N09 4.49e-10
R09 N08 N09 3.40e+01
C10 N09 N10 2.11e-11
L10 N09 N10 1.17e-10
R10 N09 N10 8.79e+00
C11 N10 N11 5.37e-10
L11 N10 N11 7.37e-11
R11 N10 N11 3.80e-01
C12 N11 N12 3.00e-09
L12 N11 N12 5.27e-11
R12 N11 N12 2.57e-01
C13 N12 Port2 3.30e-08
L13 N12 Port2 1.59e-11
R13 N12 Port2 7.46e-02
.ENDS GRM31BR73A472KW01
