*----------------------------------------------------------------------
* SPICE Model generated by Murata Manufacturing Co., Ltd.
* Copyright(C) Murata Manufacturing Co., Ltd.
* Description :3216M(1206)/X7R(-55to125[deg])/3.30e-02[uF]/250[V]
* Murata P/N :GRM31CR72E333KW03
* Property : C = 3.30e-02[uF]
* Data Generated on Nov 26, 2021
*----------------------------------------------------------------------
* Applicable Conditions:
*   Frequency Range = 100[kHz]-6[GHz]
*   Temperature = 25 degC
*   DC Bias Voltage = 0V
*   Small Signal Operation
*----------------------------------------------------------------------
.SUBCKT GRM31CR72E333KW03 Port1 Port2
C01 Port1 N01 3.17e-08
R01 Port1 N01 3.03e+09
L02 N01 N02 1.00e-10
R03 N02 N03 4.22e-02
C04 N03 N04 2.52e-06
R04 N03 N04 9.01e-01
C05 N04 N05 2.80e-06
R05 N04 N05 1.26e-01
C06 N05 N06 1.68e-06
R06 N05 N06 3.39e-02
L07 N06 N07 5.68e-11
R07 N06 N07 1.07e-01
C08 N07 N08 3.50e-12
L08 N07 N08 9.66e-11
R08 N07 N08 1.82e+01
C09 N08 N09 2.14e-12
L09 N08 N09 4.74e-10
R09 N08 N09 2.68e+01
C10 N09 N10 1.48e-11
L10 N09 N10 2.35e-10
R10 N09 N10 1.24e+01
C11 N10 N11 1.47e-08
L11 N10 N11 7.66e-11
R11 N10 N11 6.77e-02
C12 N11 Port2 2.56e-07
L12 N11 Port2 1.76e-11
R12 N11 Port2 1.85e-02
.ENDS GRM31CR72E333KW03
