*----------------------------------------------------------------------
* SPICE Model generated by Murata Manufacturing Co., Ltd.
* Copyright(C) Murata Manufacturing Co., Ltd.
* Description :3216M(1206)/X7R(-55to125[deg])/1.50e-02[uF]/250[V]
* Murata P/N :GRM31BR72E153KW01
* Property : C = 1.50e-02[uF]
* Data Generated on Nov 26, 2021
*----------------------------------------------------------------------
* Applicable Conditions:
*   Frequency Range = 100[kHz]-6[GHz]
*   Temperature = 25 degC
*   DC Bias Voltage = 0V
*   Small Signal Operation
*----------------------------------------------------------------------
.SUBCKT GRM31BR72E153KW01 Port1 Port2
C01 Port1 N01 1.46e-08
R01 Port1 N01 6.67e+09
L02 N01 N02 1.00e-12
R03 N02 N03 9.25e-02
C04 N03 N04 9.50e-07
R04 N03 N04 2.79e+00
C05 N04 N05 1.23e-06
R05 N04 N05 2.59e-01
C06 N05 N06 8.13e-07
R06 N05 N06 6.75e-02
C07 N06 N07 1.22e-06
R07 N06 N07 1.08e-02
L08 N07 N08 8.64e-13
R08 N07 N08 1.25e-03
L09 N08 N09 8.17e-11
R09 N08 N09 1.35e-01
C10 N09 N10 5.70e-13
L10 N09 N10 3.70e-10
R10 N09 N10 3.29e+01
C11 N10 N11 2.98e-12
L11 N10 N11 3.40e-10
R11 N10 N11 2.37e+01
C12 N11 Port2 1.21e-11
L12 N11 Port2 2.49e-10
R12 N11 Port2 1.53e+01
.ENDS GRM31BR72E153KW01
