*----------------------------------------------------------------------
* SPICE Model generated by Murata Manufacturing Co., Ltd.
* Copyright(C) Murata Manufacturing Co., Ltd.
* Description :3216M(1206)/X7R(-55to125[deg])/2.20e-03[uF]/1000[V]
* Murata P/N :GRM31BR73A222KW01
* Property : C = 2.20e-03[uF]
* Data Generated on Nov 26, 2021
*----------------------------------------------------------------------
* Applicable Conditions:
*   Frequency Range = 100[kHz]-6[GHz]
*   Temperature = 25 degC
*   DC Bias Voltage = 0V
*   Small Signal Operation
*----------------------------------------------------------------------
.SUBCKT GRM31BR73A222KW01 Port1 Port2
C01 Port1 N01 2.07e-09
R01 Port1 N01 1.00e+10
L02 N01 N02 2.00e-12
R03 N02 N03 1.80e-01
C04 N03 N04 7.64e-08
R04 N03 N04 4.17e+01
C05 N04 N05 1.57e-07
R05 N04 N05 2.03e+00
C06 N05 N06 1.04e-07
R06 N05 N06 3.47e-01
C07 N06 N07 3.56e-08
R07 N06 N07 1.21e-01
C08 N07 N08 3.54e-13
L08 N07 N08 3.98e-10
R08 N07 N08 4.49e+01
C09 N08 N09 2.65e-12
L09 N08 N09 3.40e-10
R09 N08 N09 1.82e+01
C10 N09 N10 2.29e-11
L10 N09 N10 1.41e-10
R10 N09 N10 1.09e+01
C11 N10 N11 2.44e-08
L11 N10 N11 4.61e-13
R11 N10 N11 1.51e-02
C12 N11 N12 2.10e-09
L12 N11 N12 3.35e-11
R12 N11 N12 1.52e-01
C13 N12 Port2 3.45e-08
L13 N12 Port2 6.12e-12
R13 N12 Port2 4.62e-02
.ENDS GRM31BR73A222KW01
