*----------------------------------------------------------------------
* SPICE Model generated by Murata Manufacturing Co., Ltd.
* Copyright(C) Murata Manufacturing Co., Ltd.
* Description :3216M(1206)/X7R(-55to125[deg])/2.20e-02[uF]/250[V]
* Murata P/N :GRM31BR72E223KW01
* Property : C = 2.20e-02[uF]
* Data Generated on Nov 26, 2021
*----------------------------------------------------------------------
* Applicable Conditions:
*   Frequency Range = 100[kHz]-6[GHz]
*   Temperature = 25 degC
*   DC Bias Voltage = 0V
*   Small Signal Operation
*----------------------------------------------------------------------
.SUBCKT GRM31BR72E223KW01 Port1 Port2
C01 Port1 N01 2.04e-08
R01 Port1 N01 4.55e+09
L02 N01 N02 1.00e-12
R03 N02 N03 6.44e-02
C04 N03 N04 1.46e-06
R04 N03 N04 1.36e+00
C05 N04 N05 1.80e-06
R05 N04 N05 1.61e-01
C06 N05 N06 1.57e-06
R06 N05 N06 2.98e-02
C07 N06 N07 3.83e-06
R07 N06 N07 1.89e-03
C08 N07 N08 8.23e-13
L08 N07 N08 2.79e-10
R08 N07 N08 4.30e+01
C09 N08 N09 1.82e-12
L09 N08 N09 4.45e-10
R09 N08 N09 2.93e+01
C10 N09 N10 1.89e-11
L10 N09 N10 1.73e-10
R10 N09 N10 1.19e+01
C11 N10 Port2 3.32e-09
L11 N10 Port2 9.74e-11
R11 N10 Port2 1.14e-01
.ENDS GRM31BR72E223KW01
