*----------------------------------------------------------------------
* SPICE Model generated by Murata Manufacturing Co., Ltd.
* Copyright(C) Murata Manufacturing Co., Ltd.
* Description :3216M(1206)/X7R(-55to125[deg])/1.00e-03[uF]/1000[V]
* Murata P/N :GRM31BR73A102KW01
* Property : C = 1.00e-03[uF]
* Data Generated on Nov 26, 2021
*----------------------------------------------------------------------
* Applicable Conditions:
*   Frequency Range = 100[kHz]-6[GHz]
*   Temperature = 25 degC
*   DC Bias Voltage = 0V
*   Small Signal Operation
*----------------------------------------------------------------------
.SUBCKT GRM31BR73A102KW01 Port1 Port2
C01 Port1 N01 9.98e-10
R01 Port1 N01 1.00e+10
L02 N01 N02 5.00e-12
R03 N02 N03 2.70e-01
C04 N03 N04 2.34e-08
R04 N03 N04 1.36e+02
C05 N04 N05 7.48e-08
R05 N04 N05 2.66e+00
C06 N05 N06 3.38e-08
R06 N05 N06 5.89e-01
C07 N06 N07 9.85e-09
R07 N06 N07 2.02e-01
C08 N07 N08 1.51e-13
L08 N07 N08 5.52e-10
R08 N07 N08 4.14e+01
C09 N08 N09 3.74e-12
L09 N08 N09 1.50e-10
R09 N08 N09 1.06e+01
C10 N09 N10 2.39e-11
L10 N09 N10 1.03e-10
R10 N09 N10 6.05e+00
C11 N10 N11 4.65e-10
L11 N10 N11 8.51e-11
R11 N10 N11 7.33e-01
C12 N11 Port2 9.25e-09
L12 N11 Port2 1.10e-11
R12 N11 Port2 1.14e-01
.ENDS GRM31BR73A102KW01
