*----------------------------------------------------------------------
* SPICE Model generated by Murata Manufacturing Co., Ltd.
* Copyright(C) Murata Manufacturing Co., Ltd.
* Description :3216M(1206)/X7R(-55to125[deg])/2.20e-02[uF]/630[V]
* Murata P/N :GRM31CR72J223KW03
* Property : C = 2.20e-02[uF]
* Data Generated on Nov 26, 2021
*----------------------------------------------------------------------
* Applicable Conditions:
*   Frequency Range = 100[kHz]-6[GHz]
*   Temperature = 25 degC
*   DC Bias Voltage = 0V
*   Small Signal Operation
*----------------------------------------------------------------------
.SUBCKT GRM31CR72J223KW03 Port1 Port2
C01 Port1 N01 2.18e-08
R01 Port1 N01 4.55e+09
L02 N01 N02 9.26e-11
R03 N02 N03 3.73e-02
C04 N03 N04 1.26e-06
R04 N03 N04 1.00e+00
C05 N04 N05 1.08e-06
R05 N04 N05 8.12e-02
L06 N05 N06 1.16e-10
R06 N05 N06 1.55e-01
C07 N06 N07 8.55e-08
L07 N06 N07 4.59e-11
R07 N06 N07 5.82e-02
C08 N07 N08 4.39e-08
L08 N07 N08 4.29e-11
R08 N07 N08 9.88e-02
C09 N08 N09 2.64e-08
L09 N08 N09 2.43e-11
R09 N08 N09 5.42e-02
C10 N09 N10 1.67e-11
L10 N09 N10 1.36e-10
R10 N09 N10 1.43e+01
C11 N10 Port2 1.71e-12
L11 N10 Port2 3.82e-10
R11 N10 Port2 5.69e+01
.ENDS GRM31CR72J223KW03
