*----------------------------------------------------------------------
* SPICE Model generated by Murata Manufacturing Co., Ltd.
* Copyright(C) Murata Manufacturing Co., Ltd.
* Description :3216M(1206)/X7R(-55to125[deg])/2.20e-03[uF]/630[V]
* Murata P/N :GRM31BR72J222KW01
* Property : C = 2.20e-03[uF]
* Data Generated on Nov 26, 2021
*----------------------------------------------------------------------
* Applicable Conditions:
*   Frequency Range = 100[kHz]-6[GHz]
*   Temperature = 25 degC
*   DC Bias Voltage = 0V
*   Small Signal Operation
*----------------------------------------------------------------------
.SUBCKT GRM31BR72J222KW01 Port1 Port2
C01 Port1 N01 2.11e-09
R01 Port1 N01 1.00e+10
L02 N01 N02 5.00e-12
R03 N02 N03 1.58e-01
C04 N03 N04 7.92e-08
R04 N03 N04 4.02e+01
C05 N04 N05 1.65e-07
R05 N04 N05 1.93e+00
C06 N05 N06 1.15e-07
R06 N05 N06 3.95e-01
C07 N06 N07 3.31e-08
R07 N06 N07 1.50e-01
C08 N07 N08 5.22e-13
L08 N07 N08 2.84e-10
R08 N07 N08 3.05e+01
C09 N08 N09 1.42e-12
L09 N08 N09 3.95e-10
R09 N08 N09 2.10e+01
C10 N09 N10 1.61e-11
L10 N09 N10 1.81e-10
R10 N09 N10 1.16e+01
C11 N10 N11 3.38e-09
L11 N10 N11 2.08e-11
R11 N10 N11 1.59e-01
C12 N11 N12 1.10e-08
L12 N11 N12 1.89e-11
R12 N11 N12 8.02e-02
C13 N12 Port2 6.72e-08
L13 N12 Port2 3.68e-12
R13 N12 Port2 1.48e-02
.ENDS GRM31BR72J222KW01
