*----------------------------------------------------------------------
* SPICE Model generated by Murata Manufacturing Co., Ltd.
* Copyright(C) Murata Manufacturing Co., Ltd.
* Description :3216M(1206)/X7R(-55to125[deg])/2.20e-03[uF]/630[V]
* Murata P/N :GRM31AR72J222KW01
* Property : C = 2.20e-03[uF]
* Data Generated on Nov 26, 2021
*----------------------------------------------------------------------
* Applicable Conditions:
*   Frequency Range = 100[kHz]-6[GHz]
*   Temperature = 25 degC
*   DC Bias Voltage = 0V
*   Small Signal Operation
*----------------------------------------------------------------------
.SUBCKT GRM31AR72J222KW01 Port1 Port2
C01 Port1 N01 2.00e-09
R01 Port1 N01 1.00e+10
L02 N01 N02 9.16e-11
R03 N02 N03 1.88e-01
C04 N03 N04 4.63e-08
R04 N03 N04 4.33e+01
C05 N04 N05 1.11e-07
R05 N04 N05 1.06e+00
C06 N05 N06 3.20e-08
R06 N05 N06 1.89e-01
C07 N06 N07 1.00e-11
L07 N06 N07 3.26e-10
R07 N06 N07 2.03e+01
C08 N07 N08 4.45e-12
L08 N07 N08 2.60e-10
R08 N07 N08 2.31e+01
C09 N08 Port2 1.62e-12
L09 N08 Port2 3.05e-10
R09 N08 Port2 2.07e+01
.ENDS GRM31AR72J222KW01
