*----------------------------------------------------------------------
* SPICE Model generated by Murata Manufacturing Co., Ltd.
* Copyright(C) Murata Manufacturing Co., Ltd.
* Description :3216M(1206)/X7R(-55to125[deg])/1.00e-03[uF]/630[V]
* Murata P/N :GRM31AR72J102KW01
* Property : C = 1.00e-03[uF]
* Data Generated on Nov 26, 2021
*----------------------------------------------------------------------
* Applicable Conditions:
*   Frequency Range = 100[kHz]-6[GHz]
*   Temperature = 25 degC
*   DC Bias Voltage = 0V
*   Small Signal Operation
*----------------------------------------------------------------------
.SUBCKT GRM31AR72J102KW01 Port1 Port2
C01 Port1 N01 9.96e-10
R01 Port1 N01 1.00e+10
L02 N01 N02 2.01e-11
R03 N02 N03 2.98e-01
C04 N03 N04 9.61e-09
R04 N03 N04 3.38e+02
C05 N04 N05 4.92e-08
R05 N04 N05 1.39e+00
C06 N05 N06 1.41e-08
R06 N05 N06 3.28e-01
C07 N06 N07 7.30e-10
L07 N06 N07 3.38e-11
R07 N06 N07 4.01e-01
C08 N07 N08 1.74e-11
L08 N07 N08 1.32e-10
R08 N07 N08 1.36e+01
C09 N08 Port2 1.22e-12
L09 N08 Port2 6.15e-10
R09 N08 Port2 3.91e+01
.ENDS GRM31AR72J102KW01
