*----------------------------------------------------------------------
* SPICE Model generated by Murata Manufacturing Co., Ltd.
* Copyright(C) Murata Manufacturing Co., Ltd.
* Description :3216M(1206)/X7R(-55to125[deg])/1.00e-02[uF]/1000[V]
* Murata P/N :GRM31CR73A103KW03
* Property : C = 1.00e-02[uF]
* Data Generated on Nov 26, 2021
*----------------------------------------------------------------------
* Applicable Conditions:
*   Frequency Range = 100[kHz]-6[GHz]
*   Temperature = 25 degC
*   DC Bias Voltage = 0V
*   Small Signal Operation
*----------------------------------------------------------------------
.SUBCKT GRM31CR73A103KW03 Port1 Port2
C01 Port1 N01 1.01e-08
R01 Port1 N01 1.00e+10
L02 N01 N02 1.05e-10
R03 N02 N03 5.77e-02
C04 N03 N04 5.65e-07
R04 N03 N04 2.63e+00
C05 N04 N05 7.45e-07
R05 N04 N05 1.74e-01
C06 N05 N06 4.64e-07
R06 N05 N06 3.66e-02
C07 N06 N07 1.01e-07
L07 N06 N07 1.94e-11
R07 N06 N07 8.73e-02
C08 N07 N08 1.04e-08
L08 N07 N08 7.55e-11
R08 N07 N08 1.52e-01
C09 N08 N09 1.09e-09
L09 N08 N09 9.08e-11
R09 N08 N09 1.55e-01
C10 N09 N10 1.65e-11
L10 N09 N10 1.31e-10
R10 N09 N10 1.26e+01
C11 N10 Port2 1.50e-12
L11 N10 Port2 4.15e-10
R11 N10 Port2 4.48e+01
.ENDS GRM31CR73A103KW03
