*----------------------------------------------------------------------
* SPICE Model generated by Murata Manufacturing Co., Ltd.
* Copyright(C) Murata Manufacturing Co., Ltd.
* Description :3216M(1206)/X7R(-55to125[deg])/6.80e-04[uF]/1000[V]
* Murata P/N :GRM31BR73A681KW01
* Property : C = 6.80e-04[uF]
* Data Generated on Nov 26, 2021
*----------------------------------------------------------------------
* Applicable Conditions:
*   Frequency Range = 100[kHz]-6[GHz]
*   Temperature = 25 degC
*   DC Bias Voltage = 0V
*   Small Signal Operation
*----------------------------------------------------------------------
.SUBCKT GRM31BR73A681KW01 Port1 Port2
C01 Port1 N01 7.20e-10
R01 Port1 N01 1.00e+10
L02 N01 N02 2.00e-11
R03 N02 N03 3.20e-01
C04 N03 N04 9.57e-09
R04 N03 N04 4.16e+02
C05 N04 N05 5.73e-08
R05 N04 N05 4.96e+00
C06 N05 N06 3.98e-08
R06 N05 N06 1.21e+00
C07 N06 N07 1.81e-08
R07 N06 N07 4.00e-01
C08 N07 N08 6.94e-09
R08 N07 N08 2.29e-01
L09 N08 N09 1.74e-10
R09 N08 N09 1.38e+01
C10 N09 N10 1.03e-12
L10 N09 N10 2.23e-10
R10 N09 N10 3.44e+01
C11 N10 N11 4.32e-12
L11 N10 N11 3.17e-10
R11 N10 N11 1.43e+01
C12 N11 Port2 1.18e-11
L12 N11 Port2 3.58e-10
R12 N11 Port2 2.10e+01
.ENDS GRM31BR73A681KW01
