* Q2SA1037AK PNP BJT model
* Date: 2006/11/30
.MODEL Q2SA1037AK PNP
+ IS=70.000E-15
+ BF=266.38
+ VAF=50.700
+ IKF=.27914
+ ISE=70.000E-15
+ NE=1.7618
+ BR=1.8730
+ VAR=100
+ IKR=2.0006
+ ISC=270.82E-12
+ NC=1.7915
+ RE=.2
+ RB=7.8035
+ RC=1.0862
+ CJE=22.937E-12
+ MJE=.58268
+ CJC=11.613E-12
+ MJC=.43988
+ TF=328.92E-12
+ XTF=331.17
+ VTF=254.25
+ ITF=8.1505
+ TR=327.28E-9
+ XTB=1.5000
