* LED: Chip LED 0402 LW QH8G
* (c) 2022, OSRAM Opto Semiconductors GmbH. All rights reserved.

* Valid for Vf(binning) = 2.80 V and If(binning) = 5.00 mA
* VERSION: 3
.MODEL LW_QH8G_typ D
+ IS=2.918974288197902e-21
+ N=2.542008072178153
+ RS=11.88192278838412
+ Tnom=25
+ EG=3.486106265142286
+ XTI=1.0000000000000000
+ TRS1=-0.005855166691344039
+ TRS2=0.0001545484379676788
+ mfg=OSRAM_OS

* Valid for bin '3Y' with Vf(binning) = 2.75 V and If(binning) = 5.00 mA
* VERSION: 3
.MODEL LW_QH8G_3Y-mid D
+ IS=2.918974288199788e-21
+ N=2.542008072178193
+ RS=1.589304187203467
+ Tnom=25
+ EG=3.486106263124194
+ XTI=1.0000000000000000
+ TRS1=-0.0437742752188441
+ TRS2=0.001155431802391909
+ mfg=OSRAM_OS

* Valid for bin '3Y' with Vf(binning) = 2.80 V and If(binning) = 5.00 mA
* VERSION: 3
.MODEL LW_QH8G_3Y-max D
+ IS=2.918974288199072e-21
+ N=2.542008072178178
+ RS=11.58930418720352
+ Tnom=25
+ EG=3.486106264005869
+ XTI=1.0000000000000000
+ TRS1=-0.006003005155923729
+ TRS2=0.0001584506382494249
+ mfg=OSRAM_OS

* Valid for bin '3Z' with Vf(binning) = 2.80 V and If(binning) = 5.00 mA
* VERSION: 3
.MODEL LW_QH8G_3Z-min D
+ IS=2.918974288199072e-21
+ N=2.542008072178178
+ RS=11.58930418720352
+ Tnom=25
+ EG=3.486106264005869
+ XTI=1.0000000000000000
+ TRS1=-0.006003005155923729
+ TRS2=0.0001584506382494249
+ mfg=OSRAM_OS

* Valid for bin '3Z' with Vf(binning) = 2.85 V and If(binning) = 5.00 mA
* VERSION: 3
.MODEL LW_QH8G_3Z-mid D
+ IS=2.918974288196063e-21
+ N=2.542008072178115
+ RS=21.58930418720364
+ Tnom=25
+ EG=3.486106274422268
+ XTI=1.0000000000000000
+ TRS1=-0.003222458620534097
+ TRS2=8.505751562565905e-05
+ mfg=OSRAM_OS

* Valid for bin '3Z' with Vf(binning) = 2.90 V and If(binning) = 5.00 mA
* VERSION: 3
.MODEL LW_QH8G_3Z-max D
+ IS=2.918974288200362e-21
+ N=2.542008072178208
+ RS=31.58930418720305
+ Tnom=25
+ EG=3.486106270544472
+ XTI=1.0000000000000000
+ TRS1=-0.002202348238597139
+ TRS2=5.813146355214516e-05
+ mfg=OSRAM_OS

* Valid for bin '4X' with Vf(binning) = 2.90 V and If(binning) = 5.00 mA
* VERSION: 3
.MODEL LW_QH8G_4X-min D
+ IS=2.918974288200362e-21
+ N=2.542008072178208
+ RS=31.58930418720305
+ Tnom=25
+ EG=3.486106270544472
+ XTI=1.0000000000000000
+ TRS1=-0.002202348238597139
+ TRS2=5.813146355214516e-05
+ mfg=OSRAM_OS

* Valid for bin '4X' with Vf(binning) = 2.95 V and If(binning) = 5.00 mA
* VERSION: 3
.MODEL LW_QH8G_4X-mid D
+ IS=2.918974288197592e-21
+ N=2.542008072178148
+ RS=41.58930418720352
+ Tnom=25
+ EG=3.486106181938841
+ XTI=1.0000000000000000
+ TRS1=-0.001672802061931888
+ TRS2=4.415396040487499e-05
+ mfg=OSRAM_OS

* Valid for bin '4X' with Vf(binning) = 3.00 V and If(binning) = 5.00 mA
* VERSION: 3
.MODEL LW_QH8G_4X-max D
+ IS=2.918974288194678e-21
+ N=2.542008072178085
+ RS=51.58930418720387
+ Tnom=25
+ EG=3.486106231200053
+ XTI=1.0000000000000000
+ TRS1=-0.001348548347992361
+ TRS2=3.559521957210026e-05
+ mfg=OSRAM_OS

* Valid for bin '4Y' with Vf(binning) = 3.00 V and If(binning) = 5.00 mA
* VERSION: 3
.MODEL LW_QH8G_4Y-min D
+ IS=2.918974288194678e-21
+ N=2.542008072178085
+ RS=51.58930418720387
+ Tnom=25
+ EG=3.486106231200053
+ XTI=1.0000000000000000
+ TRS1=-0.001348548347992361
+ TRS2=3.559521957210026e-05
+ mfg=OSRAM_OS

* Valid for bin '4Y' with Vf(binning) = 3.05 V and If(binning) = 5.00 mA
* VERSION: 3
.MODEL LW_QH8G_4Y-mid D
+ IS=2.918974288197639e-21
+ N=2.542008072178148
+ RS=61.58930418720365
+ Tnom=25
+ EG=3.486106247491633
+ XTI=1.0000000000000000
+ TRS1=-0.001129589967814026
+ TRS2=2.981577245611204e-05
+ mfg=OSRAM_OS

* Valid for bin '4Y' with Vf(binning) = 3.10 V and If(binning) = 5.00 mA
* VERSION: 3
.MODEL LW_QH8G_4Y-max D
+ IS=2.918974288195872e-21
+ N=2.542008072178111
+ RS=71.58930418720382
+ Tnom=25
+ EG=3.486106192620557
+ XTI=1.0000000000000000
+ TRS1=-0.0009718026286191793
+ TRS2=2.565093497744241e-05
+ mfg=OSRAM_OS

