*----------------------------------------------------------------------
* SPICE Model generated by Murata Manufacturing Co., Ltd.
* Copyright(C) Murata Manufacturing Co., Ltd.
* Description :1005M(0402)/B(-25to85[deg])/4.70e+00[uF]/6.3[V]
* Murata P/N :GRM155B30J475ME47
* Property : C = 4.70e+00[uF]
* Data Generated on Nov 26, 2021
*----------------------------------------------------------------------
* Applicable Conditions:
*   Frequency Range = 100[Hz]-6[GHz]
*   Temperature = 25 degC
*   DC Bias Voltage = 0V
*   Small Signal Operation
*----------------------------------------------------------------------
.SUBCKT GRM155B30J475ME47 Port1 Port2
C01 Port1 N01 3.54e-06
R01 Port1 N01 1.06e+07
L02 N01 N02 1.47e-10
R03 N02 N03 5.01e-03
C04 N03 N04 1.12e-04
R04 N03 N04 4.03e+01
C05 N04 N05 1.84e-04
R05 N04 N05 2.63e+00
C06 N05 N06 2.59e-04
R06 N05 N06 1.96e-01
C07 N06 N07 4.29e-04
R07 N06 N07 1.58e-02
C08 N07 N08 2.03e-04
R08 N07 N08 6.21e-03
L09 N08 N09 3.81e-11
R09 N08 N09 2.18e-01
L10 N09 N10 3.64e-11
R10 N09 N10 3.71e-02
L11 N10 N11 1.91e-10
R11 N10 N11 2.06e-02
C12 N11 N12 1.97e-05
L12 N11 N12 2.44e-11
R12 N11 N12 1.59e-03
C13 N12 N13 5.99e-06
L13 N12 N13 4.49e-11
R13 N12 N13 2.70e-03
C14 N13 Port2 1.18e-11
L14 N13 Port2 2.47e-11
R14 N13 Port2 7.43e+00
.ENDS GRM155B30J475ME47
