* LED: DURIS E 3 GW JCLPS2.EM
* (c) 2022, OSRAM Opto Semiconductors GmbH. All rights reserved.

* Valid for Vf(binning) = 2.95 V and If(binning) = 65.0 mA
* VERSION: 6
.MODEL GW_JCLPS2.EM_typ D
+ IS=1.564063210727992e-31
+ N=1.497820477229811
+ RS=5.034955978649353
+ Tnom=25
+ EG=2.926598547267301
+ XTI=1.0000000000000000
+ TRS1=-0.001385536024916278
+ TRS2=1.649640565703224e-05
+ mfg=OSRAM_OS

* Valid for bin 'L1' with Vf(binning) = 2.80 V and If(binning) = 65.0 mA
* VERSION: 6
.MODEL GW_JCLPS2.EM_L1-min D
+ IS=1.564063210728018e-31
+ N=1.497820477229812
+ RS=2.699830509559754
+ Tnom=25
+ EG=2.926598543263296
+ XTI=1.0000000000000000
+ TRS1=-0.00258390773539121
+ TRS2=3.07644025219355e-05
+ mfg=OSRAM_OS

* Valid for bin 'L1' with Vf(binning) = 2.85 V and If(binning) = 65.0 mA
* VERSION: 6
.MODEL GW_JCLPS2.EM_L1-mid D
+ IS=1.564063210728146e-31
+ N=1.497820477229814
+ RS=3.469061278790513
+ Tnom=25
+ EG=2.926598597851723
+ XTI=1.0000000000000000
+ TRS1=-0.002010950867282986
+ TRS2=2.394269860617281e-05
+ mfg=OSRAM_OS

* Valid for bin 'L1' with Vf(binning) = 2.90 V and If(binning) = 65.0 mA
* VERSION: 6
.MODEL GW_JCLPS2.EM_L1-max D
+ IS=1.564063210726713e-31
+ N=1.497820477229793
+ RS=4.238292048021301
+ Tnom=25
+ EG=2.926598545935448
+ XTI=1.0000000000000462
+ TRS1=-0.001645972814589547
+ TRS2=1.959720503365188e-05
+ mfg=OSRAM_OS

* Valid for bin 'L2' with Vf(binning) = 2.90 V and If(binning) = 65.0 mA
* VERSION: 6
.MODEL GW_JCLPS2.EM_L2-min D
+ IS=1.564063210726713e-31
+ N=1.497820477229793
+ RS=4.238292048021301
+ Tnom=25
+ EG=2.926598545935448
+ XTI=1.0000000000000462
+ TRS1=-0.001645972814589547
+ TRS2=1.959720503365188e-05
+ mfg=OSRAM_OS

* Valid for bin 'L2' with Vf(binning) = 2.95 V and If(binning) = 65.0 mA
* VERSION: 6
.MODEL GW_JCLPS2.EM_L2-mid D
+ IS=1.564063210727429e-31
+ N=1.497820477229803
+ RS=5.007522817252069
+ Tnom=25
+ EG=2.926598560591985
+ XTI=1.0000000000000000
+ TRS1=-0.001393126291256532
+ TRS2=1.658677706751368e-05
+ mfg=OSRAM_OS

* Valid for bin 'L2' with Vf(binning) = 3.00 V and If(binning) = 65.0 mA
* VERSION: 6
.MODEL GW_JCLPS2.EM_L2-max D
+ IS=1.564063210719727e-31
+ N=1.497820477229693
+ RS=5.776753586482887
+ Tnom=25
+ EG=2.926598614794678
+ XTI=1.0000000000000000
+ TRS1=-0.001207617857362038
+ TRS2=1.437808838704416e-05
+ mfg=OSRAM_OS

* Valid for Vf(binning) = 2.95 V and If(binning) = 65.0 mA
* VERSION: 7
.MODEL GW_JCLPS2.EM_typ D
+ IS=1.564063210727992e-31
+ N=1.497820477229811
+ RS=5.034955978649353
+ Tnom=25
+ EG=2.926598547267301
+ XTI=1.0000000000000000
+ TRS1=-0.001385536024916278
+ TRS2=1.649640565703224e-05
+ mfg=OSRAM_OS

* Valid for bin 'L1' with Vf(binning) = 2.80 V and If(binning) = 65.0 mA
* VERSION: 7
.MODEL GW_JCLPS2.EM_L1-min D
+ IS=1.564063210728018e-31
+ N=1.497820477229812
+ RS=2.699830509559754
+ Tnom=25
+ EG=2.926598543263296
+ XTI=1.0000000000000000
+ TRS1=-0.00258390773539121
+ TRS2=3.07644025219355e-05
+ mfg=OSRAM_OS

* Valid for bin 'L1' with Vf(binning) = 2.85 V and If(binning) = 65.0 mA
* VERSION: 7
.MODEL GW_JCLPS2.EM_L1-mid D
+ IS=1.564063210728146e-31
+ N=1.497820477229814
+ RS=3.469061278790513
+ Tnom=25
+ EG=2.926598597851723
+ XTI=1.0000000000000000
+ TRS1=-0.002010950867282986
+ TRS2=2.394269860617281e-05
+ mfg=OSRAM_OS

* Valid for bin 'L1' with Vf(binning) = 2.90 V and If(binning) = 65.0 mA
* VERSION: 7
.MODEL GW_JCLPS2.EM_L1-max D
+ IS=1.564063210726713e-31
+ N=1.497820477229793
+ RS=4.238292048021301
+ Tnom=25
+ EG=2.926598545935448
+ XTI=1.0000000000000462
+ TRS1=-0.001645972814589547
+ TRS2=1.959720503365188e-05
+ mfg=OSRAM_OS

* Valid for bin 'L2' with Vf(binning) = 2.90 V and If(binning) = 65.0 mA
* VERSION: 7
.MODEL GW_JCLPS2.EM_L2-min D
+ IS=1.564063210726713e-31
+ N=1.497820477229793
+ RS=4.238292048021301
+ Tnom=25
+ EG=2.926598545935448
+ XTI=1.0000000000000462
+ TRS1=-0.001645972814589547
+ TRS2=1.959720503365188e-05
+ mfg=OSRAM_OS

* Valid for bin 'L2' with Vf(binning) = 2.95 V and If(binning) = 65.0 mA
* VERSION: 7
.MODEL GW_JCLPS2.EM_L2-mid D
+ IS=1.564063210727429e-31
+ N=1.497820477229803
+ RS=5.007522817252069
+ Tnom=25
+ EG=2.926598560591985
+ XTI=1.0000000000000000
+ TRS1=-0.001393126291256532
+ TRS2=1.658677706751368e-05
+ mfg=OSRAM_OS

* Valid for bin 'L2' with Vf(binning) = 3.00 V and If(binning) = 65.0 mA
* VERSION: 7
.MODEL GW_JCLPS2.EM_L2-max D
+ IS=1.564063210719727e-31
+ N=1.497820477229693
+ RS=5.776753586482887
+ Tnom=25
+ EG=2.926598614794678
+ XTI=1.0000000000000000
+ TRS1=-0.001207617857362038
+ TRS2=1.437808838704416e-05
+ mfg=OSRAM_OS

