* LED: DURIS S 5 GB PSLM31.13
* (c) 2022, OSRAM Opto Semiconductors GmbH. All rights reserved.

* Valid for Vf(binning) = 2.85 V and If(binning) = 100 mA
* VERSION: 4
.MODEL GB_PSLM31.13_typ D
+ IS=1.415881858789964e-22
+ N=2.220628415628739
+ RS=1.106479570323079
+ Tnom=25
+ EG=3.15398030822689
+ XTI=1.0000000000000000
+ TRS1=-0.003899006214417262
+ TRS2=2.353722990620461e-05
+ mfg=OSRAM_OS

* Valid for bin 'K' with Vf(binning) = 2.80 V and If(binning) = 100 mA
* VERSION: 4
.MODEL GB_PSLM31.13_K-max D
+ IS=1.415881858791887e-22
+ N=2.220628415628805
+ RS=0.6105189766966233
+ Tnom=25
+ EG=3.15398027171366
+ XTI=1.0000000000000000
+ TRS1=-0.00706639958525019
+ TRS2=4.265788027340432e-05
+ mfg=OSRAM_OS

* Valid for bin 'L' with Vf(binning) = 2.80 V and If(binning) = 100 mA
* VERSION: 4
.MODEL GB_PSLM31.13_L-min D
+ IS=1.415881858791887e-22
+ N=2.220628415628805
+ RS=0.6105189766966233
+ Tnom=25
+ EG=3.15398027171366
+ XTI=1.0000000000000000
+ TRS1=-0.00706639958525019
+ TRS2=4.265788027340432e-05
+ mfg=OSRAM_OS

* Valid for bin 'L' with Vf(binning) = 2.90 V and If(binning) = 100 mA
* VERSION: 4
.MODEL GB_PSLM31.13_L-mid D
+ IS=1.415881858790578e-22
+ N=2.220628415628759
+ RS=1.610518976696659
+ Tnom=25
+ EG=3.153980311531476
+ XTI=1.0000000000000000
+ TRS1=-0.002678745354639103
+ TRS2=1.617084790590775e-05
+ mfg=OSRAM_OS

* Valid for bin 'L' with Vf(binning) = 3.00 V and If(binning) = 100 mA
* VERSION: 4
.MODEL GB_PSLM31.13_L-max D
+ IS=1.41588185879198e-22
+ N=2.220628415628807
+ RS=2.610518976696647
+ Tnom=25
+ EG=3.153980276879025
+ XTI=1.0000000000000000
+ TRS1=-0.001652610612288909
+ TRS2=9.976351269867502e-06
+ mfg=OSRAM_OS

