* LED: DURIS S 5 GW PSLM32.UL
* (c) 2022, OSRAM Opto Semiconductors GmbH. All rights reserved.

* Valid for Vf(binning) = 2.95 V and If(binning) = 100 mA
* VERSION: 4
.MODEL GW_PSLM32.UL_typ D
+ IS=1.105074661812423e-20
+ N=2.43244721155377
+ RS=2.208704788342062
+ Tnom=25
+ EG=3.042946622049938
+ XTI=1.0000000000000000
+ TRS1=-0.002675353612091248
+ TRS2=2.320081098158013e-05
+ mfg=OSRAM_OS

* Valid for bin 'K2' with Vf(binning) = 2.75 V and If(binning) = 100 mA
* VERSION: 4
.MODEL GW_PSLM32.UL_K2-mid D
+ IS=1.105074661811176e-20
+ N=2.432447211553705
+ RS=0.221071583808112
+ Tnom=25
+ EG=3.042946663975499
+ XTI=1.0000000000000000
+ TRS1=-0.02672919297722829
+ TRS2=0.0002317971003089854
+ mfg=OSRAM_OS

* Valid for bin 'K2' with Vf(binning) = 2.80 V and If(binning) = 100 mA
* VERSION: 4
.MODEL GW_PSLM32.UL_K2-max D
+ IS=1.105074661812984e-20
+ N=2.432447211553801
+ RS=0.7210715838080761
+ Tnom=25
+ EG=3.042946627838753
+ XTI=1.0000000000000000
+ TRS1=-0.00819484110630272
+ TRS2=7.106610617680098e-05
+ mfg=OSRAM_OS

* Valid for bin 'L1' with Vf(binning) = 2.80 V and If(binning) = 100 mA
* VERSION: 4
.MODEL GW_PSLM32.UL_L1-min D
+ IS=1.105074661812984e-20
+ N=2.432447211553801
+ RS=0.7210715838080761
+ Tnom=25
+ EG=3.042946627838753
+ XTI=1.0000000000000000
+ TRS1=-0.00819484110630272
+ TRS2=7.106610617680098e-05
+ mfg=OSRAM_OS

* Valid for bin 'L1' with Vf(binning) = 2.85 V and If(binning) = 100 mA
* VERSION: 4
.MODEL GW_PSLM32.UL_L1-mid D
+ IS=1.105074661813626e-20
+ N=2.432447211553834
+ RS=1.221071583808067
+ Tnom=25
+ EG=3.042946657072726
+ XTI=1.0000000000000000
+ TRS1=-0.004839245705937206
+ TRS2=4.196620914440959e-05
+ mfg=OSRAM_OS

* Valid for bin 'L1' with Vf(binning) = 2.90 V and If(binning) = 100 mA
* VERSION: 4
.MODEL GW_PSLM32.UL_L1-max D
+ IS=1.105074661812007e-20
+ N=2.432447211553749
+ RS=1.721071583808098
+ Tnom=25
+ EG=3.042946625658427
+ XTI=1.0000000000000000
+ TRS1=-0.003433364338120038
+ TRS2=2.977432273600156e-05
+ mfg=OSRAM_OS

* Valid for bin 'L2' with Vf(binning) = 2.90 V and If(binning) = 100 mA
* VERSION: 4
.MODEL GW_PSLM32.UL_L2-min D
+ IS=1.105074661812007e-20
+ N=2.432447211553749
+ RS=1.721071583808098
+ Tnom=25
+ EG=3.042946625658427
+ XTI=1.0000000000000000
+ TRS1=-0.003433364338120038
+ TRS2=2.977432273600156e-05
+ mfg=OSRAM_OS

* Valid for bin 'L2' with Vf(binning) = 2.95 V and If(binning) = 100 mA
* VERSION: 4
.MODEL GW_PSLM32.UL_L2-mid D
+ IS=1.105074661812794e-20
+ N=2.432447211553789
+ RS=2.221071583808095
+ Tnom=25
+ EG=3.042946616335073
+ XTI=1.0000000000000000
+ TRS1=-0.002660457267208636
+ TRS2=2.307162802588277e-05
+ mfg=OSRAM_OS

* Valid for bin 'L2' with Vf(binning) = 3.00 V and If(binning) = 100 mA
* VERSION: 4
.MODEL GW_PSLM32.UL_L2-max D
+ IS=1.105074661813029e-20
+ N=2.432447211553802
+ RS=2.721071583808089
+ Tnom=25
+ EG=3.042946612144577
+ XTI=1.0000000000000000
+ TRS1=-0.002171595324967168
+ TRS2=1.8832191576976e-05
+ mfg=OSRAM_OS

* Valid for bin 'M1' with Vf(binning) = 3.00 V and If(binning) = 100 mA
* VERSION: 4
.MODEL GW_PSLM32.UL_M1-min D
+ IS=1.105074661813029e-20
+ N=2.432447211553802
+ RS=2.721071583808089
+ Tnom=25
+ EG=3.042946612144577
+ XTI=1.0000000000000000
+ TRS1=-0.002171595324967168
+ TRS2=1.8832191576976e-05
+ mfg=OSRAM_OS

* Valid for bin 'M1' with Vf(binning) = 3.05 V and If(binning) = 100 mA
* VERSION: 4
.MODEL GW_PSLM32.UL_M1-mid D
+ IS=1.105074661812279e-20
+ N=2.432447211553763
+ RS=3.221071583808091
+ Tnom=25
+ EG=3.042946608079852
+ XTI=1.0000000000000000
+ TRS1=-0.001834503270823103
+ TRS2=1.590891035249634e-05
+ mfg=OSRAM_OS

* Valid for bin 'M1' with Vf(binning) = 3.10 V and If(binning) = 100 mA
* VERSION: 4
.MODEL GW_PSLM32.UL_M1-max D
+ IS=1.105074661811311e-20
+ N=2.432447211553712
+ RS=3.72107158380812
+ Tnom=25
+ EG=3.042946603814245
+ XTI=1.0000000000000000
+ TRS1=-0.001588001339172631
+ TRS2=1.377123211253452e-05
+ mfg=OSRAM_OS

* Valid for bin 'M2' with Vf(binning) = 3.10 V and If(binning) = 100 mA
* VERSION: 4
.MODEL GW_PSLM32.UL_M2-min D
+ IS=1.105074661811311e-20
+ N=2.432447211553712
+ RS=3.72107158380812
+ Tnom=25
+ EG=3.042946603814245
+ XTI=1.0000000000000000
+ TRS1=-0.001588001339172631
+ TRS2=1.377123211253452e-05
+ mfg=OSRAM_OS

* Valid for bin 'M2' with Vf(binning) = 3.15 V and If(binning) = 100 mA
* VERSION: 4
.MODEL GW_PSLM32.UL_M2-mid D
+ IS=1.105074661812848e-20
+ N=2.432447211553793
+ RS=4.221071583808092
+ Tnom=25
+ EG=3.042946621787163
+ XTI=1.0000000000000000
+ TRS1=-0.00139989726976979
+ TRS2=1.213998405956121e-05
+ mfg=OSRAM_OS

* Valid for bin 'M2' with Vf(binning) = 3.20 V and If(binning) = 100 mA
* VERSION: 4
.MODEL GW_PSLM32.UL_M2-max D
+ IS=1.105074661810823e-20
+ N=2.432447211553686
+ RS=4.721071583808129
+ Tnom=25
+ EG=3.042946618693592
+ XTI=1.0000000000000000
+ TRS1=-0.001251636710314164
+ TRS2=1.085426227401865e-05
+ mfg=OSRAM_OS

