* LED: DURIS S 5 GY PSLM31.13
* (c) 2022, OSRAM Opto Semiconductors GmbH. All rights reserved.

* Valid for Vf(binning) = 2.96 V and If(binning) = 100 mA
* VERSION: 5
.MODEL GY_PSLM31.13_typ D
+ IS=4.917046935625655e-22
+ N=2.311475152312262
+ RS=1.818219818138046
+ Tnom=25
+ EG=3.158078288180734
+ XTI=1.0000000000000000
+ TRS1=-0.003583174677696724
+ TRS2=3.463833910603328e-05
+ mfg=OSRAM_OS

* Valid for bin 'L2' with Vf(binning) = 2.90 V and If(binning) = 100 mA
* VERSION: 5
.MODEL GY_PSLM31.13_L2-min D
+ IS=4.917046935630482e-22
+ N=2.311475152312313
+ RS=1.229356049146046
+ Tnom=25
+ EG=3.158078280974542
+ XTI=1.0000000000000000
+ TRS1=-0.005299522574358619
+ TRS2=5.123016899505013e-05
+ mfg=OSRAM_OS

* Valid for bin 'L2' with Vf(binning) = 2.95 V and If(binning) = 100 mA
* VERSION: 5
.MODEL GY_PSLM31.13_L2-mid D
+ IS=4.917046935625937e-22
+ N=2.311475152312264
+ RS=1.729356049146081
+ Tnom=25
+ EG=3.158078304794204
+ XTI=1.0000000000000000
+ TRS1=-0.003767298017721274
+ TRS2=3.641824478404232e-05
+ mfg=OSRAM_OS

* Valid for bin 'L2' with Vf(binning) = 3.00 V and If(binning) = 100 mA
* VERSION: 5
.MODEL GY_PSLM31.13_L2-max D
+ IS=4.917046935621592e-22
+ N=2.311475152312219
+ RS=2.229356049146093
+ Tnom=25
+ EG=3.158078278568603
+ XTI=1.0000000000000000
+ TRS1=-0.002922369335337196
+ TRS2=2.825037879417101e-05
+ mfg=OSRAM_OS

* Valid for bin 'M1' with Vf(binning) = 3.00 V and If(binning) = 100 mA
* VERSION: 5
.MODEL GY_PSLM31.13_M1-min D
+ IS=4.917046935621592e-22
+ N=2.311475152312219
+ RS=2.229356049146093
+ Tnom=25
+ EG=3.158078278568603
+ XTI=1.0000000000000000
+ TRS1=-0.002922369335337196
+ TRS2=2.825037879417101e-05
+ mfg=OSRAM_OS

* Valid for bin 'M1' with Vf(binning) = 3.05 V and If(binning) = 100 mA
* VERSION: 5
.MODEL GY_PSLM31.13_M1-mid D
+ IS=4.917046935634906e-22
+ N=2.311475152312359
+ RS=2.729356049146033
+ Tnom=25
+ EG=3.158078259582014
+ XTI=1.0000000000000000
+ TRS1=-0.002387010181994741
+ TRS2=2.30750829337349e-05
+ mfg=OSRAM_OS

* Valid for bin 'M1' with Vf(binning) = 3.10 V and If(binning) = 100 mA
* VERSION: 5
.MODEL GY_PSLM31.13_M1-max D
+ IS=4.917046935626902e-22
+ N=2.311475152312275
+ RS=3.229356049146067
+ Tnom=25
+ EG=3.158078269124363
+ XTI=1.0000000000000000
+ TRS1=-0.002017430414472988
+ TRS2=1.950237770839469e-05
+ mfg=OSRAM_OS

* Valid for bin 'M2' with Vf(binning) = 3.10 V and If(binning) = 100 mA
* VERSION: 5
.MODEL GY_PSLM31.13_M2-min D
+ IS=4.917046935626902e-22
+ N=2.311475152312275
+ RS=3.229356049146067
+ Tnom=25
+ EG=3.158078269124363
+ XTI=1.0000000000000000
+ TRS1=-0.002017430414472988
+ TRS2=1.950237770839469e-05
+ mfg=OSRAM_OS

* Valid for bin 'M2' with Vf(binning) = 3.15 V and If(binning) = 100 mA
* VERSION: 5
.MODEL GY_PSLM31.13_M2-mid D
+ IS=4.917046935627546e-22
+ N=2.311475152312281
+ RS=3.729356049146073
+ Tnom=25
+ EG=3.158078294419203
+ XTI=1.0000000000000000
+ TRS1=-0.001746950191620133
+ TRS2=1.688766440971012e-05
+ mfg=OSRAM_OS

* Valid for bin 'M2' with Vf(binning) = 3.20 V and If(binning) = 100 mA
* VERSION: 5
.MODEL GY_PSLM31.13_M2-max D
+ IS=4.917046935632533e-22
+ N=2.311475152312335
+ RS=4.229356049146039
+ Tnom=25
+ EG=3.158078330640531
+ XTI=1.0000000000000000
+ TRS1=-0.001540423279412789
+ TRS2=1.48911827545104e-05
+ mfg=OSRAM_OS

