*----------------------------------------------------------------------
* SPICE Model generated by Murata Manufacturing Co., Ltd.
* Copyright(C) Murata Manufacturing Co., Ltd.
* Description :4532M(1812)/X7R(-55to125[deg])/4.70e-01[uF]/250[V]
* Murata P/N :GRM43DR72E474KW01
* Property : C = 4.70e-01[uF]
* Data Generated on Nov 26, 2021
*----------------------------------------------------------------------
* Applicable Conditions:
*   Frequency Range = 100[kHz]-6[GHz]
*   Temperature = 25 degC
*   DC Bias Voltage = 0V
*   Small Signal Operation
*----------------------------------------------------------------------
.SUBCKT GRM43DR72E474KW01 Port1 Port2
C01 Port1 N01 4.42e-07
R01 Port1 N01 2.13e+08
L02 N01 N02 1.00e-12
R03 N02 N03 6.50e-03
C04 N03 N04 3.52e-05
R04 N03 N04 5.66e-02
C05 N04 N05 3.17e-05
R05 N04 N05 7.18e-03
C06 N05 N06 1.75e-05
R06 N05 N06 1.90e-03
C07 N06 N07 1.80e-12
L07 N06 N07 4.65e-10
R07 N06 N07 8.43e+01
C08 N07 N08 2.23e-11
L08 N07 N08 1.11e-10
R08 N07 N08 7.33e+00
C09 N08 N09 2.79e-09
L09 N08 N09 2.11e-10
R09 N08 N09 5.96e-02
C10 N09 N10 2.54e-07
L10 N09 N10 1.11e-10
R10 N09 N10 2.87e-02
C11 N10 Port2 1.16e-06
L11 N10 Port2 7.58e-11
R11 N10 Port2 2.53e-02
.ENDS GRM43DR72E474KW01
