*----------------------------------------------------------------------
* SPICE Model generated by Murata Manufacturing Co., Ltd.
* Copyright(C) Murata Manufacturing Co., Ltd.
* Description :4532M(1812)/X7R(-55to125[deg])/3.30e-01[uF]/250[V]
* Murata P/N :GRM43DR72E334KW01
* Property : C = 3.30e-01[uF]
* Data Generated on Nov 26, 2021
*----------------------------------------------------------------------
* Applicable Conditions:
*   Frequency Range = 100[kHz]-6[GHz]
*   Temperature = 25 degC
*   DC Bias Voltage = 0V
*   Small Signal Operation
*----------------------------------------------------------------------
.SUBCKT GRM43DR72E334KW01 Port1 Port2
C01 Port1 N01 3.13e-07
R01 Port1 N01 3.03e+08
L02 N01 N02 5.00e-12
R03 N02 N03 9.30e-03
C04 N03 N04 2.47e-05
R04 N03 N04 8.07e-02
C05 N04 N05 2.86e-05
R05 N04 N05 9.26e-03
C06 N05 N06 1.56e-05
R06 N05 N06 1.79e-03
L07 N06 N07 1.21e-10
R07 N06 N07 5.60e-02
C08 N07 N08 1.46e-12
L08 N07 N08 1.98e-10
R08 N07 N08 2.32e+01
C09 N08 N09 3.76e-12
L09 N08 N09 3.48e-10
R09 N08 N09 3.00e+01
C10 N09 N10 1.72e-11
L10 N09 N10 2.02e-10
R10 N09 N10 1.45e+01
C11 N10 N11 3.04e-08
L11 N10 N11 5.96e-13
R11 N10 N11 4.03e-03
C12 N11 N12 1.96e-07
L12 N11 N12 7.32e-11
R12 N11 N12 2.82e-02
C13 N12 Port2 6.72e-07
L13 N12 Port2 7.12e-11
R13 N12 Port2 2.68e-02
.ENDS GRM43DR72E334KW01
