*----------------------------------------------------------------------
* SPICE Model generated by Murata Manufacturing Co., Ltd.
* Copyright(C) Murata Manufacturing Co., Ltd.
* Description :4532M(1812)/X7R(-55to125[deg])/1.50e-01[uF]/250[V]
* Murata P/N :GRM43QR72E154KW01
* Property : C = 1.50e-01[uF]
* Data Generated on Nov 26, 2021
*----------------------------------------------------------------------
* Applicable Conditions:
*   Frequency Range = 100[kHz]-6[GHz]
*   Temperature = 25 degC
*   DC Bias Voltage = 0V
*   Small Signal Operation
*----------------------------------------------------------------------
.SUBCKT GRM43QR72E154KW01 Port1 Port2
C01 Port1 N01 1.47e-07
R01 Port1 N01 6.67e+08
L02 N01 N02 1.00e-12
R03 N02 N03 9.00e-03
C04 N03 N04 1.41e-05
R04 N03 N04 1.62e-01
C05 N04 N05 1.97e-05
R05 N04 N05 2.69e-02
C06 N05 N06 1.13e-06
R06 N05 N06 8.81e-03
C07 N06 N07 1.63e-05
R07 N06 N07 6.99e-03
L08 N07 N08 1.48e-10
R08 N07 N08 9.83e-02
C09 N08 N09 1.71e-12
L09 N08 N09 4.89e-10
R09 N08 N09 6.81e+01
C10 N09 N10 2.73e-11
L10 N09 N10 1.23e-10
R10 N09 N10 7.76e+00
C11 N10 N11 1.21e-07
L11 N10 N11 4.96e-11
R11 N10 N11 3.82e-02
C12 N11 Port2 2.72e-07
L12 N11 Port2 6.81e-11
R12 N11 Port2 3.75e-02
.ENDS GRM43QR72E154KW01
