*----------------------------------------------------------------------
* SPICE Model generated by Murata Manufacturing Co., Ltd.
* Copyright(C) Murata Manufacturing Co., Ltd.
* Description :4532M(1812)/X7R(-55to125[deg])/3.30e-02[uF]/1000[V]
* Murata P/N :GRM43DR73A333KW01
* Property : C = 3.30e-02[uF]
* Data Generated on Nov 26, 2021
*----------------------------------------------------------------------
* Applicable Conditions:
*   Frequency Range = 100[kHz]-6[GHz]
*   Temperature = 25 degC
*   DC Bias Voltage = 0V
*   Small Signal Operation
*----------------------------------------------------------------------
.SUBCKT GRM43DR73A333KW01 Port1 Port2
C01 Port1 N01 3.24e-08
R01 Port1 N01 3.03e+09
L02 N01 N02 1.00e-12
R03 N02 N03 2.30e-02
C04 N03 N04 2.36e-06
R04 N03 N04 1.12e+00
C05 N04 N05 4.21e-06
R05 N04 N05 9.45e-02
C06 N05 N06 4.60e-06
R06 N05 N06 2.66e-02
C07 N06 N07 1.14e-06
R07 N06 N07 1.99e-02
L08 N07 N08 1.54e-10
R08 N07 N08 2.16e-01
C09 N08 N09 6.39e-13
L09 N08 N09 2.71e-10
R09 N08 N09 1.96e+01
C10 N09 N10 4.00e-12
L10 N09 N10 3.00e-10
R10 N09 N10 2.83e+01
C11 N10 N11 2.00e-11
L11 N10 N11 1.57e-10
R11 N10 N11 1.47e+01
C12 N11 N12 2.54e-08
L12 N11 N12 5.23e-11
R12 N11 N12 9.91e-02
C13 N12 Port2 9.98e-08
L13 N12 Port2 4.28e-11
R13 N12 Port2 8.31e-02
.ENDS GRM43DR73A333KW01
