*----------------------------------------------------------------------
* SPICE Model generated by Murata Manufacturing Co., Ltd.
* Copyright(C) Murata Manufacturing Co., Ltd.
* Description :4532M(1812)/X7R(-55to125[deg])/2.20e-01[uF]/250[V]
* Murata P/N :GRM43DR72E224KW01
* Property : C = 2.20e-01[uF]
* Data Generated on Nov 26, 2021
*----------------------------------------------------------------------
* Applicable Conditions:
*   Frequency Range = 100[kHz]-6[GHz]
*   Temperature = 25 degC
*   DC Bias Voltage = 0V
*   Small Signal Operation
*----------------------------------------------------------------------
.SUBCKT GRM43DR72E224KW01 Port1 Port2
C01 Port1 N01 2.11e-07
R01 Port1 N01 4.55e+08
L02 N01 N02 5.00e-12
R03 N02 N03 1.10e-02
C04 N03 N04 1.71e-05
R04 N03 N04 1.16e-01
C05 N04 N05 2.02e-05
R05 N04 N05 1.32e-02
C06 N05 N06 1.06e-05
R06 N05 N06 3.75e-03
L07 N06 N07 1.73e-10
R07 N06 N07 7.68e-02
C08 N07 N08 5.07e-12
L08 N07 N08 5.95e-11
R08 N07 N08 6.28e+00
C09 N08 N09 2.39e-12
L09 N08 N09 4.12e-10
R09 N08 N09 5.49e+01
C10 N09 N10 1.39e-11
L10 N09 N10 1.83e-10
R10 N09 N10 1.04e+01
C11 N10 N11 1.60e-07
L11 N10 N11 6.87e-11
R11 N10 N11 3.22e-02
C12 N11 Port2 4.16e-07
L12 N11 Port2 8.36e-11
R12 N11 Port2 3.44e-02
.ENDS GRM43DR72E224KW01
