*----------------------------------------------------------------------
* SPICE Model generated by Murata Manufacturing Co., Ltd.
* Copyright(C) Murata Manufacturing Co., Ltd.
* Description :4532M(1812)/X7R(-55to125[deg])/4.70e-02[uF]/1000[V]
* Murata P/N :GRM43DR73A473KW01
* Property : C = 4.70e-02[uF]
* Data Generated on Nov 26, 2021
*----------------------------------------------------------------------
* Applicable Conditions:
*   Frequency Range = 100[kHz]-6[GHz]
*   Temperature = 25 degC
*   DC Bias Voltage = 0V
*   Small Signal Operation
*----------------------------------------------------------------------
.SUBCKT GRM43DR73A473KW01 Port1 Port2
C01 Port1 N01 4.88e-08
R01 Port1 N01 2.13e+09
L02 N01 N02 2.00e-12
R03 N02 N03 1.65e-02
C04 N03 N04 3.89e-06
R04 N03 N04 5.85e-01
C05 N04 N05 5.02e-06
R05 N04 N05 7.93e-02
C06 N05 N06 4.39e-06
R06 N05 N06 1.81e-02
C07 N06 N07 1.75e-06
R07 N06 N07 9.11e-03
C08 N07 N08 1.63e-12
L08 N07 N08 4.47e-10
R08 N07 N08 6.54e+01
C09 N08 N09 2.77e-11
L09 N08 N09 7.17e-11
R09 N08 N09 6.39e+00
C10 N09 N10 3.65e-10
L10 N09 N10 2.30e-10
R10 N09 N10 2.91e-01
C11 N10 N11 4.01e-08
L11 N10 N11 6.86e-11
R11 N10 N11 1.13e-01
C12 N11 Port2 9.75e-08
L12 N11 Port2 8.59e-11
R12 N11 Port2 1.28e-01
.ENDS GRM43DR73A473KW01
