*----------------------------------------------------------------------
* SPICE Model generated by Murata Manufacturing Co., Ltd.
* Copyright(C) Murata Manufacturing Co., Ltd.
* Description :4532M(1812)/X7R(-55to125[deg])/6.80e-02[uF]/1000[V]
* Murata P/N :GRM43QR7LW683KW01
* Property : C = 6.80e-02[uF]
* Data Generated on Nov 26, 2021
*----------------------------------------------------------------------
* Applicable Conditions:
*   Frequency Range = 100[kHz]-6[GHz]
*   Temperature = 25 degC
*   DC Bias Voltage = 0V
*   Small Signal Operation
*----------------------------------------------------------------------
.SUBCKT GRM43QR7LW683KW01 Port1 Port2
C01 Port1 N01 6.52e-08
R01 Port1 N01 1.47e+09
L02 N01 N02 1.00e-12
R03 N02 N03 1.30e-02
C04 N03 N04 5.40e-06
R04 N03 N04 4.21e-01
C05 N04 N05 7.02e-06
R05 N04 N05 5.67e-02
C06 N05 N06 3.64e-06
R06 N05 N06 1.62e-02
C07 N06 N07 2.74e-06
R07 N06 N07 3.87e-03
L08 N07 N08 1.38e-10
R08 N07 N08 1.15e-01
C09 N08 N09 1.88e-12
L09 N08 N09 3.88e-10
R09 N08 N09 8.11e+01
C10 N09 N10 1.77e-11
L10 N09 N10 1.27e-10
R10 N09 N10 7.45e+00
C11 N10 N11 4.43e-08
L11 N10 N11 6.91e-11
R11 N10 N11 8.36e-02
C12 N11 Port2 1.29e-07
L12 N11 Port2 6.97e-11
R12 N11 Port2 8.16e-02
.ENDS GRM43QR7LW683KW01
