*----------------------------------------------------------------------
* SPICE Model generated by Murata Manufacturing Co., Ltd.
* Copyright(C) Murata Manufacturing Co., Ltd.
* MURATA P/N : LQW32FT2R2M0H
* Property : L = 2200[nH]
*----------------------------------------------------------------------
* Applicable Conditions:
*   Frequency Range = 1MHz - 20GHz
*   Temperature = 25 degC
*   DC Bias Current = 0 A
*   Small Signal Operation
*----------------------------------------------------------------------
.SUBCKT LQW32FT2R2M0H port1 port2
C1 port1 port2 7.11e-14
L2 port1 1 2.05e-6
R2 1 port2 1.70e-1
R3 port1 port2 5.19e+3
L4 port1 2 2.42e-4
R4 2 port2 3.03e+3
L5 port1 3 1.48e-5
R5 3 port2 820
L6 port1 4 9.13e-6
R6 4 port2 4.89e+3
L7 port1 5 5.78e-7
R7 5 port2 2.45e+3
L8 port1 6 1.13e-5
C8 6 7 8.38e-16
R8 7 port2 6.92e+3
L9 port1 8 8.42e-8
C9 8 9 2.39e-14
R9 9 port2 1.17e+3
L10 port1 10 2.86e-8
C10 10 11 1.47e-14
R10 11 port2 954
L11 port1 12 1.09e-9
C11 12 13 4.64e-14
R11 13 port2 186
.ENDS LQW32FT2R2M0H
*----------------------------------------------------------------------
