*----------------------------------------------------------------------
* SPICE Model generated by Murata Manufacturing Co., Ltd.
* Copyright(C) Murata Manufacturing Co., Ltd.
* MURATA P/N : LQW32FT100M0H
* Property : L = 10000[nH]
*----------------------------------------------------------------------
* Applicable Conditions:
*   Frequency Range = 1MHz - 20GHz
*   Temperature = 25 degC
*   DC Bias Current = 0 A
*   Small Signal Operation
*----------------------------------------------------------------------
.SUBCKT LQW32FT100M0H port1 port2
C1 port1 port2 5.95e-14
L2 port1 1 9.55e-6
R2 1 port2 3.50e-1
R3 port1 port2 1.22e+4
L4 port1 2 6.08e-4
R4 2 port2 7.62e+3
L5 port1 3 4.90e-5
R5 3 port2 4.33e+3
L6 port1 4 9.15e-6
R6 4 port2 1.41e+4
L7 port1 5 9.67e-7
C7 5 6 1.30e-14
R7 6 port2 2.04e+3
L8 port1 7 2.66e-7
C8 7 8 7.91e-15
R8 8 port2 906
L9 port1 9 1.50e-7
C9 9 10 4.45e-15
R9 10 port2 1.44e+3
L10 port1 11 9.24e-10
C10 11 12 6.89e-14
R10 12 port2 144
.ENDS LQW32FT100M0H
*----------------------------------------------------------------------
