* LED: Chip LED 0603 LT Q39E
* (c) 2022, OSRAM Opto Semiconductors GmbH. All rights reserved.

* Valid for Vf(binning) = 2.85 V and If(binning) = 5.00 mA
* VERSION: 6
.MODEL LT_Q39E_typ D
+ IS=5.457101103943985e-38
+ N=1.340178012330091
+ RS=15.62206952902697
+ Tnom=25
+ EG=3.619699591406438
+ XTI=1.0000000000000000
+ TRS1=-0.0007867391221911909
+ TRS2=6.91488980276619e-05
+ mfg=OSRAM_OS

* Valid for bin '3Y' with Vf(binning) = 2.80 V and If(binning) = 5.00 mA
* VERSION: 6
.MODEL LT_Q39E_3Y-max D
+ IS=5.457101103951396e-38
+ N=1.340178012330114
+ RS=5.614202403792699
+ Tnom=25
+ EG=3.619699607319128
+ XTI=1.0000000000000000
+ TRS1=-0.002189180487486138
+ TRS2=0.0001924135507970335
+ mfg=OSRAM_OS

* Valid for bin '3Z' with Vf(binning) = 2.80 V and If(binning) = 5.00 mA
* VERSION: 6
.MODEL LT_Q39E_3Z-min D
+ IS=5.457101103951396e-38
+ N=1.340178012330114
+ RS=5.614202403792699
+ Tnom=25
+ EG=3.619699607319128
+ XTI=1.0000000000000000
+ TRS1=-0.002189180487486138
+ TRS2=0.0001924135507970335
+ mfg=OSRAM_OS

* Valid for bin '3Z' with Vf(binning) = 2.85 V and If(binning) = 5.00 mA
* VERSION: 6
.MODEL LT_Q39E_3Z-mid D
+ IS=5.457101103948093e-38
+ N=1.340178012330103
+ RS=15.61420240379283
+ Tnom=25
+ EG=3.619699599338387
+ XTI=1.0000000000000000
+ TRS1=-0.0007871361698874474
+ TRS2=6.918372463980432e-05
+ mfg=OSRAM_OS

* Valid for bin '3Z' with Vf(binning) = 2.90 V and If(binning) = 5.00 mA
* VERSION: 6
.MODEL LT_Q39E_3Z-max D
+ IS=5.457101103947824e-38
+ N=1.340178012330103
+ RS=25.6142024037928
+ Tnom=25
+ EG=3.619699580365928
+ XTI=1.0000000000000000
+ TRS1=-0.000479831516051942
+ TRS2=4.21738111698866e-05
+ mfg=OSRAM_OS

* Valid for bin '4X' with Vf(binning) = 2.90 V and If(binning) = 5.00 mA
* VERSION: 6
.MODEL LT_Q39E_4X-min D
+ IS=5.457101103947824e-38
+ N=1.340178012330103
+ RS=25.6142024037928
+ Tnom=25
+ EG=3.619699580365928
+ XTI=1.0000000000000000
+ TRS1=-0.000479831516051942
+ TRS2=4.21738111698866e-05
+ mfg=OSRAM_OS

* Valid for bin '4X' with Vf(binning) = 2.95 V and If(binning) = 5.00 mA
* VERSION: 6
.MODEL LT_Q39E_4X-mid D
+ IS=5.457101103928985e-38
+ N=1.340178012330044
+ RS=35.61420240379306
+ Tnom=25
+ EG=3.619699606061738
+ XTI=1.0000000000000000
+ TRS1=-0.0003451007246841982
+ TRS2=3.033196472909472e-05
+ mfg=OSRAM_OS

* Valid for bin '4X' with Vf(binning) = 3.00 V and If(binning) = 5.00 mA
* VERSION: 6
.MODEL LT_Q39E_4X-max D
+ IS=5.457101103969074e-38
+ N=1.340178012330168
+ RS=45.61420240379256
+ Tnom=25
+ EG=3.619699548492017
+ XTI=1.0000000000000000
+ TRS1=-0.0002694449388659695
+ TRS2=2.36822891427368e-05
+ mfg=OSRAM_OS

* Valid for bin '4Y' with Vf(binning) = 3.00 V and If(binning) = 5.00 mA
* VERSION: 6
.MODEL LT_Q39E_4Y-min D
+ IS=5.457101103969074e-38
+ N=1.340178012330168
+ RS=45.61420240379256
+ Tnom=25
+ EG=3.619699548492017
+ XTI=1.0000000000000000
+ TRS1=-0.0002694449388659695
+ TRS2=2.36822891427368e-05
+ mfg=OSRAM_OS

* Valid for bin '4Y' with Vf(binning) = 3.05 V and If(binning) = 5.00 mA
* VERSION: 6
.MODEL LT_Q39E_4Y-mid D
+ IS=5.4571011039372e-38
+ N=1.340178012330069
+ RS=55.61420240379297
+ Tnom=25
+ EG=3.619699560487517
+ XTI=1.0000000000000000
+ TRS1=-0.0002209959251667998
+ TRS2=1.942397334964104e-05
+ mfg=OSRAM_OS

* Valid for bin '4Y' with Vf(binning) = 3.10 V and If(binning) = 5.00 mA
* VERSION: 6
.MODEL LT_Q39E_4Y-max D
+ IS=5.45710110393354e-38
+ N=1.340178012330058
+ RS=65.61420240379307
+ Tnom=25
+ EG=3.619699613681554
+ XTI=1.0000000000000002
+ TRS1=-0.0001873144659018618
+ TRS2=1.64636388953924e-05
+ mfg=OSRAM_OS

