*----------------------------------------------------------------------
* SPICE Model generated by Murata Manufacturing Co., Ltd.
* Copyright(C) Murata Manufacturing Co., Ltd.
* Description :0201M(008004)/C0G(-55to125[deg])/1.90e-06[uF]/16[V]
* Murata P/N :GRM0115C1C1R9WE11
* Property : C = 1.90e-06[uF]
* Data Generated on Nov 26, 2021
*----------------------------------------------------------------------
* Applicable Conditions:
*   Frequency Range = 100[MHz]-20[GHz]
*   Temperature = 25 degC
*   DC Bias Voltage = 0V
*   Small Signal Operation
*----------------------------------------------------------------------
.SUBCKT GRM0115C1C1R9WE11 Port1 Port2
C01 Port1 N01 1.90e-12
R01 Port1 N01 1.00e+10
L02 N01 N02 1.73e-10
R03 N02 N03 2.71e-01
L04 N03 N04 2.04e-11
R04 N03 N04 6.51e-01
C05 N04 Port2 1.11e-10
L05 N04 Port2 5.33e-13
R05 N04 Port2 3.12e-01
.ENDS GRM0115C1C1R9WE11
