*----------------------------------------------------------------------
* SPICE Model generated by Murata Manufacturing Co., Ltd.
* Copyright(C) Murata Manufacturing Co., Ltd.
* Description :0201M(008004)/C0G(-55to125[deg])/8.80e-06[uF]/16[V]
* Murata P/N :GRM0115C1C8R8CE01
* Property : C = 8.80e-06[uF]
* Data Generated on Nov 26, 2021
*----------------------------------------------------------------------
* Applicable Conditions:
*   Frequency Range = 100[MHz]-9[GHz]
*   Temperature = 25 degC
*   DC Bias Voltage = 0V
*   Small Signal Operation
*----------------------------------------------------------------------
.SUBCKT GRM0115C1C8R8CE01 Port1 Port2
C01 Port1 N01 8.80e-12
R01 Port1 N01 1.00e+10
L02 N01 N02 1.07e-10
R03 N02 N03 1.23e-01
L04 N03 N04 1.09e-11
R04 N03 N04 2.00e-01
C05 N04 Port2 4.35e-11
L05 N04 Port2 5.50e-12
R05 N04 Port2 5.25e-01
.ENDS GRM0115C1C8R8CE01
