*----------------------------------------------------------------------
* SPICE Model generated by Murata Manufacturing Co., Ltd.
* Copyright(C) Murata Manufacturing Co., Ltd.
* Description :0201M(008004)/C0G(-55to125[deg])/2.30e-06[uF]/16[V]
* Murata P/N :GRM0115C1C2R3CE11
* Property : C = 2.30e-06[uF]
* Data Generated on Nov 26, 2021
*----------------------------------------------------------------------
* Applicable Conditions:
*   Frequency Range = 100[MHz]-9[GHz]
*   Temperature = 25 degC
*   DC Bias Voltage = 0V
*   Small Signal Operation
*----------------------------------------------------------------------
.SUBCKT GRM0115C1C2R3CE11 Port1 Port2
C01 Port1 N01 2.30e-12
R01 Port1 N01 1.00e+10
L02 N01 N02 1.11e-10
R03 N02 N03 2.21e-01
L04 N03 N04 1.37e-11
R04 N03 N04 1.27e-01
C05 N04 Port2 1.25e-10
L05 N04 Port2 2.79e-12
R05 N04 Port2 1.63e-01
.ENDS GRM0115C1C2R3CE11
