*----------------------------------------------------------------------
* SPICE Model generated by Murata Manufacturing Co., Ltd.
* Copyright(C) Murata Manufacturing Co., Ltd.
* Description :0201M(008004)/C0G(-55to125[deg])/5.00e-07[uF]/16[V]
* Murata P/N :GRM0115C1CR50WE11
* Property : C = 5.00e-07[uF]
* Data Generated on Nov 26, 2021
*----------------------------------------------------------------------
* Applicable Conditions:
*   Frequency Range = 100[MHz]-20[GHz]
*   Temperature = 25 degC
*   DC Bias Voltage = 0V
*   Small Signal Operation
*----------------------------------------------------------------------
.SUBCKT GRM0115C1CR50WE11 Port1 Port2
C01 Port1 N01 5.00e-13
R01 Port1 N01 1.00e+10
L02 N01 N02 1.83e-10
R03 N02 N03 5.82e-01
L04 N03 Port2 1.22e-11
R04 N03 Port2 5.68e-01
.ENDS GRM0115C1CR50WE11
