*----------------------------------------------------------------------
* SPICE Model generated by Murata Manufacturing Co., Ltd.
* Copyright(C) Murata Manufacturing Co., Ltd.
* Description :0201M(008004)/C0G(-55to125[deg])/4.00e-07[uF]/16[V]
* Murata P/N :GRM0115C1CR40BE11
* Property : C = 4.00e-07[uF]
* Data Generated on Nov 26, 2021
*----------------------------------------------------------------------
* Applicable Conditions:
*   Frequency Range = 100[MHz]-20[GHz]
*   Temperature = 25 degC
*   DC Bias Voltage = 0V
*   Small Signal Operation
*----------------------------------------------------------------------
.SUBCKT GRM0115C1CR40BE11 Port1 Port2
C01 Port1 N01 4.00e-13
R01 Port1 N01 1.00e+10
L02 N01 N02 1.97e-10
R03 N02 N03 7.38e-01
L04 N03 Port2 7.36e-12
R04 N03 Port2 5.58e-01
.ENDS GRM0115C1CR40BE11
