*----------------------------------------------------------------------
* SPICE Model generated by Murata Manufacturing Co., Ltd.
* Copyright(C) Murata Manufacturing Co., Ltd.
* Description :3216M(1206)/X7R(-55to125[deg])/4.70e-03[uF]/630[V]
* Murata P/N :GRM31AR72J472KW01
* Property : C = 4.70e-03[uF]
* Data Generated on Nov 26, 2021
*----------------------------------------------------------------------
* Applicable Conditions:
*   Frequency Range = 100[kHz]-6[GHz]
*   Temperature = 25 degC
*   DC Bias Voltage = 0V
*   Small Signal Operation
*----------------------------------------------------------------------
.SUBCKT GRM31AR72J472KW01 Port1 Port2
C01 Port1 N01 4.63e-09
R01 Port1 N01 1.00e+10
L02 N01 N02 1.31e-13
R03 N02 N03 1.17e-01
C04 N03 N04 1.47e-07
R04 N03 N04 1.72e+01
C05 N04 N05 2.74e-07
R05 N04 N05 5.30e-01
C06 N05 N06 1.73e-07
R06 N05 N06 8.60e-02
C07 N06 N07 2.18e-09
L07 N06 N07 4.31e-11
R07 N06 N07 1.94e-01
C08 N07 N08 3.16e-10
L08 N07 N08 3.76e-11
R08 N07 N08 3.45e-01
C09 N08 N09 1.62e-11
L09 N08 N09 1.40e-10
R09 N08 N09 1.41e+01
C10 N09 Port2 1.09e-12
L10 N09 Port2 6.24e-10
R10 N09 Port2 5.34e+01
.ENDS GRM31AR72J472KW01
