*----------------------------------------------------------------------
* SPICE Model generated by Murata Manufacturing Co., Ltd.
* Copyright(C) Murata Manufacturing Co., Ltd.
* Description :3216M(1206)/X7R(-55to125[deg])/6.80e-02[uF]/250[V]
* Murata P/N :GRM31BR72E683KW01
* Property : C = 6.80e-02[uF]
* Data Generated on Nov 26, 2021
*----------------------------------------------------------------------
* Applicable Conditions:
*   Frequency Range = 100[kHz]-6[GHz]
*   Temperature = 25 degC
*   DC Bias Voltage = 0V
*   Small Signal Operation
*----------------------------------------------------------------------
.SUBCKT GRM31BR72E683KW01 Port1 Port2
C01 Port1 N01 6.55e-08
R01 Port1 N01 1.47e+09
L02 N01 N02 6.50e-11
R03 N02 N03 2.63e-02
C04 N03 N04 4.17e-06
R04 N03 N04 5.45e-01
C05 N04 N05 4.68e-06
R05 N04 N05 5.67e-02
C06 N05 N06 2.28e-06
R06 N05 N06 1.16e-02
L07 N06 N07 1.03e-10
R07 N06 N07 8.84e-02
C08 N07 N08 1.05e-12
L08 N07 N08 4.94e-10
R08 N07 N08 5.74e+01
C09 N08 N09 1.60e-11
L09 N08 N09 1.37e-10
R09 N08 N09 9.14e+00
C10 N09 N10 4.56e-08
L10 N09 N10 7.01e-11
R10 N09 N10 5.07e-02
C11 N10 Port2 4.04e-07
L11 N10 Port2 2.51e-11
R11 N10 Port2 2.25e-02
.ENDS GRM31BR72E683KW01
