*----------------------------------------------------------------------
* SPICE Model generated by Murata Manufacturing Co., Ltd.
* Copyright(C) Murata Manufacturing Co., Ltd.
* Description :3216M(1206)/X7R(-55to125[deg])/3.30e-03[uF]/630[V]
* Murata P/N :GRM31AR72J332KW01
* Property : C = 3.30e-03[uF]
* Data Generated on Nov 26, 2021
*----------------------------------------------------------------------
* Applicable Conditions:
*   Frequency Range = 100[kHz]-6[GHz]
*   Temperature = 25 degC
*   DC Bias Voltage = 0V
*   Small Signal Operation
*----------------------------------------------------------------------
.SUBCKT GRM31AR72J332KW01 Port1 Port2
C01 Port1 N01 3.18e-09
R01 Port1 N01 1.00e+10
L02 N01 N02 2.79e-13
R03 N02 N03 1.70e-01
C04 N03 N04 8.88e-08
R04 N03 N04 2.10e+01
C05 N04 N05 1.34e-07
R05 N04 N05 5.93e-01
C06 N05 N06 1.09e-07
R06 N05 N06 5.80e-02
C07 N06 N07 4.00e-09
L07 N06 N07 1.18e-11
R07 N06 N07 5.44e-02
C08 N07 N08 1.10e-11
L08 N07 N08 2.71e-10
R08 N07 N08 2.12e+01
C09 N08 N09 2.35e-12
L09 N08 N09 4.00e-10
R09 N08 N09 3.59e+01
C10 N09 Port2 2.96e-12
L10 N09 Port2 1.59e-10
R10 N09 Port2 1.84e+01
.ENDS GRM31AR72J332KW01
