*----------------------------------------------------------------------
* SPICE Model generated by Murata Manufacturing Co., Ltd.
* Copyright(C) Murata Manufacturing Co., Ltd.
* Description :3216M(1206)/X7R(-55to125[deg])/1.50e-03[uF]/1000[V]
* Murata P/N :GRM31BR73A152KW01
* Property : C = 1.50e-03[uF]
* Data Generated on Nov 26, 2021
*----------------------------------------------------------------------
* Applicable Conditions:
*   Frequency Range = 100[kHz]-6[GHz]
*   Temperature = 25 degC
*   DC Bias Voltage = 0V
*   Small Signal Operation
*----------------------------------------------------------------------
.SUBCKT GRM31BR73A152KW01 Port1 Port2
C01 Port1 N01 1.43e-09
R01 Port1 N01 1.00e+10
L02 N01 N02 3.00e-11
R03 N02 N03 2.42e-01
C04 N03 N04 4.14e-08
R04 N03 N04 7.68e+01
C05 N04 N05 1.16e-07
R05 N04 N05 1.96e+00
C06 N05 N06 7.20e-08
R06 N05 N06 4.51e-01
C07 N06 N07 1.77e-08
R07 N06 N07 2.00e-01
L08 N07 N08 5.14e-11
R08 N07 N08 2.15e-01
C09 N08 N09 1.27e-12
L09 N08 N09 2.38e-10
R09 N08 N09 2.51e+01
C10 N09 N10 4.29e-12
L10 N09 N10 1.39e-10
R10 N09 N10 1.37e+01
C11 N10 N11 6.88e-12
L11 N10 N11 1.82e-10
R11 N10 N11 1.51e+01
C12 N11 Port2 1.14e-11
L12 N11 Port2 2.84e-10
R12 N11 Port2 1.26e+01
.ENDS GRM31BR73A152KW01
