*----------------------------------------------------------------------
* SPICE Model generated by Murata Manufacturing Co., Ltd.
* Copyright(C) Murata Manufacturing Co., Ltd.
* Description :3216M(1206)/X7R(-55to125[deg])/3.30e-03[uF]/630[V]
* Murata P/N :GRM31BR72J332KW01
* Property : C = 3.30e-03[uF]
* Data Generated on Nov 26, 2021
*----------------------------------------------------------------------
* Applicable Conditions:
*   Frequency Range = 100[kHz]-6[GHz]
*   Temperature = 25 degC
*   DC Bias Voltage = 0V
*   Small Signal Operation
*----------------------------------------------------------------------
.SUBCKT GRM31BR72J332KW01 Port1 Port2
C01 Port1 N01 3.09e-09
R01 Port1 N01 1.00e+10
L02 N01 N02 1.00e-11
R03 N02 N03 1.50e-01
C04 N03 N04 1.45e-07
R04 N03 N04 1.83e+01
C05 N04 N05 2.26e-07
R05 N04 N05 1.08e+00
C06 N05 N06 1.70e-07
R06 N05 N06 2.13e-01
C07 N06 N07 8.01e-08
R07 N06 N07 7.36e-02
C08 N07 N08 4.24e-13
L08 N07 N08 3.90e-10
R08 N07 N08 3.95e+01
C09 N08 N09 3.00e-12
L09 N08 N09 3.67e-10
R09 N08 N09 2.10e+01
C10 N09 N10 1.83e-11
L10 N09 N10 1.90e-10
R10 N09 N10 1.36e+01
C11 N10 N11 5.83e-08
L11 N10 N11 3.02e-13
R11 N10 N11 6.20e-03
C12 N11 N12 4.90e-09
L12 N11 N12 1.44e-11
R12 N11 N12 9.28e-02
C13 N12 Port2 4.04e-08
L13 N12 Port2 6.97e-12
R13 N12 Port2 3.58e-02
.ENDS GRM31BR72J332KW01
