*----------------------------------------------------------------------
* SPICE Model generated by Murata Manufacturing Co., Ltd.
* Copyright(C) Murata Manufacturing Co., Ltd.
* Description :3216M(1206)/X7R(-55to125[deg])/1.00e-02[uF]/630[V]
* Murata P/N :GRM31BR72J103KW01
* Property : C = 1.00e-02[uF]
* Data Generated on Nov 26, 2021
*----------------------------------------------------------------------
* Applicable Conditions:
*   Frequency Range = 100[kHz]-6[GHz]
*   Temperature = 25 degC
*   DC Bias Voltage = 0V
*   Small Signal Operation
*----------------------------------------------------------------------
.SUBCKT GRM31BR72J103KW01 Port1 Port2
C01 Port1 N01 9.23e-09
R01 Port1 N01 1.00e+10
L02 N01 N02 3.00e-11
R03 N02 N03 6.62e-02
C04 N03 N04 5.66e-07
R04 N03 N04 4.69e+00
C05 N04 N05 6.97e-07
R05 N04 N05 4.57e-01
C06 N05 N06 5.73e-07
R06 N05 N06 7.94e-02
C07 N06 N07 3.26e-07
R07 N06 N07 2.71e-02
C08 N07 N08 3.92e-12
L08 N07 N08 8.61e-11
R08 N07 N08 1.62e+01
C09 N08 N09 1.36e-12
L09 N08 N09 4.83e-10
R09 N08 N09 3.35e+01
C10 N09 N10 1.70e-11
L10 N09 N10 1.77e-10
R10 N09 N10 1.08e+01
C11 N10 N11 1.37e-09
L11 N10 N11 3.21e-11
R11 N10 N11 9.38e-02
C12 N11 N12 5.99e-09
L12 N11 N12 6.76e-11
R12 N11 N12 1.46e-01
C13 N12 Port2 8.64e-08
L13 N12 Port2 1.50e-11
R13 N12 Port2 4.25e-02
.ENDS GRM31BR72J103KW01
