*----------------------------------------------------------------------
* SPICE Model generated by Murata Manufacturing Co., Ltd.
* Copyright(C) Murata Manufacturing Co., Ltd.
* Description :3216M(1206)/X7R(-55to125[deg])/6.80e-03[uF]/630[V]
* Murata P/N :GRM31BR72J682KW01
* Property : C = 6.80e-03[uF]
* Data Generated on Nov 26, 2021
*----------------------------------------------------------------------
* Applicable Conditions:
*   Frequency Range = 100[kHz]-6[GHz]
*   Temperature = 25 degC
*   DC Bias Voltage = 0V
*   Small Signal Operation
*----------------------------------------------------------------------
.SUBCKT GRM31BR72J682KW01 Port1 Port2
C01 Port1 N01 6.45e-09
R01 Port1 N01 1.00e+10
L02 N01 N02 7.00e-11
R03 N02 N03 9.80e-02
C04 N03 N04 3.66e-07
R04 N03 N04 7.25e+00
C05 N04 N05 4.28e-07
R05 N04 N05 6.20e-01
C06 N05 N06 2.55e-07
R06 N05 N06 1.14e-01
C07 N06 N07 6.28e-13
L07 N06 N07 2.80e-10
R07 N06 N07 2.53e+01
C08 N07 N08 1.84e-12
L08 N07 N08 4.54e-10
R08 N07 N08 1.68e+01
C09 N08 N09 2.45e-11
L09 N08 N09 1.37e-10
R09 N08 N09 8.65e+00
C10 N09 N10 7.10e-09
L10 N09 N10 3.30e-12
R10 N09 N10 1.87e-02
C11 N10 N11 8.08e-09
L11 N10 N11 2.40e-11
R11 N10 N11 1.23e-01
C12 N11 Port2 2.79e-08
L12 N11 Port2 1.87e-11
R12 N11 Port2 4.97e-02
.ENDS GRM31BR72J682KW01
