*----------------------------------------------------------------------
* SPICE Model generated by Murata Manufacturing Co., Ltd.
* Copyright(C) Murata Manufacturing Co., Ltd.
* Description :3216M(1206)/X7R(-55to125[deg])/1.00e-01[uF]/250[V]
* Murata P/N :GRM31CR72E104KW03
* Property : C = 1.00e-01[uF]
* Data Generated on Nov 26, 2021
*----------------------------------------------------------------------
* Applicable Conditions:
*   Frequency Range = 100[kHz]-6[GHz]
*   Temperature = 25 degC
*   DC Bias Voltage = 0V
*   Small Signal Operation
*----------------------------------------------------------------------
.SUBCKT GRM31CR72E104KW03 Port1 Port2
C01 Port1 N01 9.69e-08
R01 Port1 N01 1.00e+09
L02 N01 N02 5.00e-11
R03 N02 N03 1.70e-02
C04 N03 N04 7.34e-06
R04 N03 N04 3.10e-01
C05 N04 N05 7.43e-06
R05 N04 N05 4.28e-02
C06 N05 N06 4.82e-06
R06 N05 N06 6.61e-03
L07 N06 N07 8.88e-13
R07 N06 N07 1.12e-02
L08 N07 N08 1.53e-10
R08 N07 N08 9.15e-02
C09 N08 N09 1.13e-12
L09 N08 N09 5.49e-10
R09 N08 N09 6.12e+01
C10 N09 N10 2.62e-11
L10 N09 N10 9.75e-11
R10 N09 N10 8.17e+00
C11 N10 N11 1.09e-07
L11 N10 N11 6.68e-11
R11 N10 N11 4.16e-02
C12 N11 Port2 4.35e-07
L12 N11 Port2 4.25e-11
R12 N11 Port2 2.34e-02
.ENDS GRM31CR72E104KW03
