*----------------------------------------------------------------------
* SPICE Model generated by Murata Manufacturing Co., Ltd.
* Copyright(C) Murata Manufacturing Co., Ltd.
* Description :3216M(1206)/X7R(-55to125[deg])/1.50e-01[uF]/250[V]
* Murata P/N :GRM31CR72E154KW43
* Property : C = 1.50e-01[uF]
* Data Generated on Nov 26, 2021
*----------------------------------------------------------------------
* Applicable Conditions:
*   Frequency Range = 100[kHz]-3[GHz]
*   Temperature = 25 degC
*   DC Bias Voltage = 0V
*   Small Signal Operation
*----------------------------------------------------------------------
.SUBCKT GRM31CR72E154KW43 Port1 Port2
C01 Port1 N01 1.56e-07
R01 Port1 N01 6.67e+08
L02 N01 N02 4.92e-10
R03 N02 N03 2.05e-02
C04 N03 N04 1.02e-05
R04 N03 N04 5.42e-02
L05 N04 N05 2.49e-10
R05 N04 N05 7.51e-02
C06 N05 Port2 1.04e-11
L06 N05 Port2 2.76e-10
R06 N05 Port2 1.95e+01
.ENDS GRM31CR72E154KW43
