*----------------------------------------------------------------------
* SPICE Model generated by Murata Manufacturing Co., Ltd.
* Copyright(C) Murata Manufacturing Co., Ltd.
* Description :3216M(1206)/X7R(-55to125[deg])/4.70e-03[uF]/630[V]
* Murata P/N :GRM31BR72J472KW01
* Property : C = 4.70e-03[uF]
* Data Generated on Nov 26, 2021
*----------------------------------------------------------------------
* Applicable Conditions:
*   Frequency Range = 100[kHz]-6[GHz]
*   Temperature = 25 degC
*   DC Bias Voltage = 0V
*   Small Signal Operation
*----------------------------------------------------------------------
.SUBCKT GRM31BR72J472KW01 Port1 Port2
C01 Port1 N01 4.51e-09
R01 Port1 N01 1.00e+10
L02 N01 N02 5.00e-12
R03 N02 N03 1.00e-01
C04 N03 N04 2.27e-07
R04 N03 N04 1.17e+01
C05 N04 N05 4.45e-07
R05 N04 N05 6.51e-01
C06 N05 N06 3.28e-07
R06 N05 N06 2.02e-01
C07 N06 N07 9.03e-08
R07 N06 N07 8.01e-02
C08 N07 N08 1.63e-12
L08 N07 N08 1.66e-10
R08 N07 N08 3.90e+01
C09 N08 N09 1.08e-12
L09 N08 N09 4.91e-10
R09 N08 N09 3.25e+01
C10 N09 N10 2.54e-11
L10 N09 N10 9.73e-11
R10 N09 N10 7.30e+00
C11 N10 N11 6.62e-10
L11 N10 N11 5.98e-11
R11 N10 N11 3.08e-01
C12 N11 N12 2.98e-09
L12 N11 N12 5.31e-11
R12 N11 N12 2.59e-01
C13 N12 Port2 3.25e-08
L13 N12 Port2 1.61e-11
R13 N12 Port2 7.55e-02
.ENDS GRM31BR72J472KW01
