*----------------------------------------------------------------------
* SPICE Model generated by Murata Manufacturing Co., Ltd.
* Copyright(C) Murata Manufacturing Co., Ltd.
* Description :3216M(1206)/X7R(-55to125[deg])/1.00e-03[uF]/630[V]
* Murata P/N :GRM31BR72J102KW01
* Property : C = 1.00e-03[uF]
* Data Generated on Nov 26, 2021
*----------------------------------------------------------------------
* Applicable Conditions:
*   Frequency Range = 100[kHz]-6[GHz]
*   Temperature = 25 degC
*   DC Bias Voltage = 0V
*   Small Signal Operation
*----------------------------------------------------------------------
.SUBCKT GRM31BR72J102KW01 Port1 Port2
C01 Port1 N01 9.85e-10
R01 Port1 N01 1.00e+10
L02 N01 N02 1.00e-12
R03 N02 N03 2.00e-01
C04 N03 N04 2.13e-08
R04 N03 N04 1.50e+02
C05 N04 N05 7.44e-08
R05 N04 N05 2.67e+00
C06 N05 N06 3.30e-08
R06 N05 N06 6.03e-01
C07 N06 N07 7.74e-09
R07 N06 N07 2.57e-01
C08 N07 N08 2.75e-13
L08 N07 N08 6.39e-10
R08 N07 N08 4.26e+01
C09 N08 N09 1.97e-11
L09 N08 N09 9.26e-11
R09 N08 N09 8.96e+00
C10 N09 N10 4.74e-10
L10 N09 N10 8.34e-11
R10 N09 N10 8.14e-01
C11 N10 Port2 4.71e-09
L11 N10 Port2 2.15e-11
R11 N10 Port2 2.23e-01
.ENDS GRM31BR72J102KW01
