*----------------------------------------------------------------------
* SPICE Model generated by Murata Manufacturing Co., Ltd.
* Copyright(C) Murata Manufacturing Co., Ltd.
* Description :3216M(1206)/X7R(-55to125[deg])/3.30e-03[uF]/1000[V]
* Murata P/N :GRM31BR73A332KW01
* Property : C = 3.30e-03[uF]
* Data Generated on Nov 26, 2021
*----------------------------------------------------------------------
* Applicable Conditions:
*   Frequency Range = 100[kHz]-6[GHz]
*   Temperature = 25 degC
*   DC Bias Voltage = 0V
*   Small Signal Operation
*----------------------------------------------------------------------
.SUBCKT GRM31BR73A332KW01 Port1 Port2
C01 Port1 N01 3.13e-09
R01 Port1 N01 1.00e+10
L02 N01 N02 1.00e-12
R03 N02 N03 1.40e-01
C04 N03 N04 1.47e-07
R04 N03 N04 1.81e+01
C05 N04 N05 2.30e-07
R05 N04 N05 1.06e+00
C06 N05 N06 1.72e-07
R06 N05 N06 2.10e-01
C07 N06 N07 8.15e-08
R07 N06 N07 7.23e-02
C08 N07 N08 3.54e-13
L08 N07 N08 4.26e-10
R08 N07 N08 3.87e+01
C09 N08 N09 2.25e-12
L09 N08 N09 3.72e-10
R09 N08 N09 1.70e+01
C10 N09 N10 3.21e-11
L10 N09 N10 9.71e-11
R10 N09 N10 6.62e+00
C11 N10 N11 1.54e-09
L11 N10 N11 5.44e-11
R11 N10 N11 2.90e-01
C12 N11 Port2 3.94e-08
L12 N11 Port2 7.14e-12
R12 N11 Port2 3.67e-02
.ENDS GRM31BR73A332KW01
