*----------------------------------------------------------------------
* SPICE Model generated by Murata Manufacturing Co., Ltd.
* Copyright(C) Murata Manufacturing Co., Ltd.
* Description :3216M(1206)/X7R(-55to125[deg])/1.50e-02[uF]/630[V]
* Murata P/N :GRM31CR72J153KW03
* Property : C = 1.50e-02[uF]
* Data Generated on Nov 26, 2021
*----------------------------------------------------------------------
* Applicable Conditions:
*   Frequency Range = 100[kHz]-6[GHz]
*   Temperature = 25 degC
*   DC Bias Voltage = 0V
*   Small Signal Operation
*----------------------------------------------------------------------
.SUBCKT GRM31CR72J153KW03 Port1 Port2
C01 Port1 N01 1.39e-08
R01 Port1 N01 6.67e+09
L02 N01 N02 1.00e-11
R03 N02 N03 4.65e-02
C04 N03 N04 9.37e-07
R04 N03 N04 2.83e+00
C05 N04 N05 1.26e-06
R05 N04 N05 2.81e-01
C06 N05 N06 1.03e-06
R06 N05 N06 6.46e-02
C07 N06 N07 4.91e-07
R07 N06 N07 2.31e-02
L08 N07 N08 1.31e-10
R08 N07 N08 2.35e-01
C09 N08 N09 8.51e-13
L09 N08 N09 6.08e-10
R09 N08 N09 3.90e+01
C10 N09 N10 1.77e-11
L10 N09 N10 1.39e-10
R10 N09 N10 8.21e+00
C11 N10 N11 1.53e-08
L11 N10 N11 5.71e-11
R11 N10 N11 1.12e-01
C12 N11 Port2 7.46e-08
L12 N11 Port2 3.08e-11
R12 N11 Port2 6.56e-02
.ENDS GRM31CR72J153KW03
