*----------------------------------------------------------------------
* SPICE Model generated by Murata Manufacturing Co., Ltd.
* Copyright(C) Murata Manufacturing Co., Ltd.
* Description :3216M(1206)/X7R(-55to125[deg])/1.50e-03[uF]/630[V]
* Murata P/N :GRM31AR72J152KW01
* Property : C = 1.50e-03[uF]
* Data Generated on Nov 26, 2021
*----------------------------------------------------------------------
* Applicable Conditions:
*   Frequency Range = 100[kHz]-6[GHz]
*   Temperature = 25 degC
*   DC Bias Voltage = 0V
*   Small Signal Operation
*----------------------------------------------------------------------
.SUBCKT GRM31AR72J152KW01 Port1 Port2
C01 Port1 N01 1.52e-09
R01 Port1 N01 1.00e+10
L02 N01 N02 1.29e-11
R03 N02 N03 2.17e-01
C04 N03 N04 2.07e-08
R04 N03 N04 1.53e+02
C05 N04 N05 7.75e-08
R05 N04 N05 1.21e+00
C06 N05 N06 2.27e-08
R06 N05 N06 2.22e-01
C07 N06 N07 3.46e-10
L07 N06 N07 8.22e-11
R07 N06 N07 5.47e-01
C08 N07 N08 1.07e-11
L08 N07 N08 1.72e-10
R08 N07 N08 1.28e+01
C09 N08 Port2 1.38e-12
L09 N08 Port2 4.95e-10
R09 N08 Port2 4.65e+01
.ENDS GRM31AR72J152KW01
