*----------------------------------------------------------------------
* SPICE Model generated by Murata Manufacturing Co., Ltd.
* Copyright(C) Murata Manufacturing Co., Ltd.
* Description :3216M(1206)/X7R(-55to125[deg])/4.70e-02[uF]/250[V]
* Murata P/N :GRM31CR72E473KW03
* Property : C = 4.70e-02[uF]
* Data Generated on Nov 26, 2021
*----------------------------------------------------------------------
* Applicable Conditions:
*   Frequency Range = 100[kHz]-6[GHz]
*   Temperature = 25 degC
*   DC Bias Voltage = 0V
*   Small Signal Operation
*----------------------------------------------------------------------
.SUBCKT GRM31CR72E473KW03 Port1 Port2
C01 Port1 N01 4.38e-08
R01 Port1 N01 2.13e+09
L02 N01 N02 1.00e-11
R03 N02 N03 2.89e-02
C04 N03 N04 3.52e-06
R04 N03 N04 6.46e-01
C05 N04 N05 4.15e-06
R05 N04 N05 9.59e-02
C06 N05 N06 2.21e-06
R06 N05 N06 2.40e-02
L07 N06 N07 1.04e-10
R07 N06 N07 8.54e-02
C08 N07 N08 3.78e-12
L08 N07 N08 8.92e-11
R08 N07 N08 1.68e+01
C09 N08 N09 1.52e-12
L09 N08 N09 4.63e-10
R09 N08 N09 3.88e+01
C10 N09 N10 1.34e-11
L10 N09 N10 2.10e-10
R10 N09 N10 1.08e+01
C11 N10 N11 4.81e-08
L11 N10 N11 5.72e-11
R11 N10 N11 5.37e-02
C12 N11 Port2 1.70e-07
L12 N11 Port2 4.15e-11
R12 N11 Port2 3.47e-02
.ENDS GRM31CR72E473KW03
