*----------------------------------------------------------------------
* SPICE Model generated by Murata Manufacturing Co., Ltd.
* Copyright(C) Murata Manufacturing Co., Ltd.
* Description :3216M(1206)/X7R(-55to125[deg])/1.50e-03[uF]/630[V]
* Murata P/N :GRM31BR72J152KW01
* Property : C = 1.50e-03[uF]
* Data Generated on Nov 26, 2021
*----------------------------------------------------------------------
* Applicable Conditions:
*   Frequency Range = 100[kHz]-6[GHz]
*   Temperature = 25 degC
*   DC Bias Voltage = 0V
*   Small Signal Operation
*----------------------------------------------------------------------
.SUBCKT GRM31BR72J152KW01 Port1 Port2
C01 Port1 N01 1.43e-09
R01 Port1 N01 1.00e+10
L02 N01 N02 2.00e-10
R03 N02 N03 2.80e-01
C04 N03 N04 4.06e-08
R04 N03 N04 7.83e+01
C05 N04 N05 1.12e-07
R05 N04 N05 2.04e+00
C06 N05 N06 8.01e-08
R06 N05 N06 4.52e-01
C07 N06 N07 2.24e-08
R07 N06 N07 2.03e-01
L08 N07 N08 3.47e-11
R08 N07 N08 1.45e-01
C09 N08 N09 4.47e-12
L09 N08 N09 7.95e-11
R09 N08 N09 1.78e+01
C10 N09 N10 3.02e-12
L10 N09 N10 3.49e-10
R10 N09 N10 1.72e+01
C11 N10 Port2 1.24e-11
L11 N10 Port2 2.90e-10
R11 N10 Port2 1.03e+01
.ENDS GRM31BR72J152KW01
