*----------------------------------------------------------------------
* SPICE Model generated by Murata Manufacturing Co., Ltd.
* Copyright(C) Murata Manufacturing Co., Ltd.
* Description :3216M(1206)/X7R(-55to125[deg])/6.80e-03[uF]/1000[V]
* Murata P/N :GRM31CR73A682KW03
* Property : C = 6.80e-03[uF]
* Data Generated on Nov 26, 2021
*----------------------------------------------------------------------
* Applicable Conditions:
*   Frequency Range = 100[kHz]-6[GHz]
*   Temperature = 25 degC
*   DC Bias Voltage = 0V
*   Small Signal Operation
*----------------------------------------------------------------------
.SUBCKT GRM31CR73A682KW03 Port1 Port2
C01 Port1 N01 6.90e-09
R01 Port1 N01 1.00e+10
L02 N01 N02 1.36e-10
R03 N02 N03 8.21e-02
C04 N03 N04 3.29e-07
R04 N03 N04 4.84e+00
C05 N04 N05 4.04e-07
R05 N04 N05 2.79e-01
C06 N05 N06 2.93e-07
R06 N05 N06 3.43e-02
C07 N06 N07 1.04e-07
L07 N06 N07 9.97e-12
R07 N06 N07 4.38e-02
C08 N07 N08 1.06e-08
L08 N07 N08 3.54e-11
R08 N07 N08 1.15e-01
C09 N08 N09 7.68e-10
L09 N08 N09 8.49e-11
R09 N08 N09 1.10e-01
C10 N09 N10 1.43e-11
L10 N09 N10 2.08e-10
R10 N09 N10 1.79e+01
C11 N10 N11 6.69e-12
L11 N10 N11 2.04e-10
R11 N10 N11 1.39e+01
C12 N11 Port2 1.64e-12
L12 N11 Port2 2.88e-10
R12 N11 Port2 1.67e+01
.ENDS GRM31CR73A682KW03
