*----------------------------------------------------------------------
* SPICE Model generated by Murata Manufacturing Co., Ltd.
* Copyright(C) Murata Manufacturing Co., Ltd.
* Description :0402M(01005)/CK(-55to125[deg])/1.20e-06[uF]/50[V]
* Murata P/N :GRM0224C1H1R2CA03
* Property : C = 1.20e-06[uF]
* Data Generated on Nov 26, 2021
*----------------------------------------------------------------------
* Applicable Conditions:
*   Frequency Range = 100[MHz]-20[GHz]
*   Temperature = 25 degC
*   DC Bias Voltage = 0V
*   Small Signal Operation
*----------------------------------------------------------------------
.SUBCKT GRM0224C1H1R2CA03 Port1 Port2
C01 Port1 N01 1.20e-12
R01 Port1 N01 1.00e+10
L02 N01 N02 2.27e-10
R03 N02 N03 4.26e-01
L04 N03 N04 3.53e-12
R04 N03 N04 4.02e-01
L05 N04 Port2 1.59e-11
R05 N04 Port2 1.30e-01
.ENDS GRM0224C1H1R2CA03
