*----------------------------------------------------------------------
* SPICE Model generated by Murata Manufacturing Co., Ltd.
* Copyright(C) Murata Manufacturing Co., Ltd.
* Description :0402M(01005)/C0G(-55to125[deg])/6.00e-07[uF]/50[V]
* Murata P/N :GRM0225C1HR60BA03
* Property : C = 6.00e-07[uF]
* Data Generated on Nov 26, 2021
*----------------------------------------------------------------------
* Applicable Conditions:
*   Frequency Range = 100[MHz]-20[GHz]
*   Temperature = 25 degC
*   DC Bias Voltage = 0V
*   Small Signal Operation
*----------------------------------------------------------------------
.SUBCKT GRM0225C1HR60BA03 Port1 Port2
C01 Port1 N01 6.00e-13
R01 Port1 N01 1.00e+10
L02 N01 N02 2.38e-10
R03 N02 N03 6.28e-01
L04 N03 Port2 1.66e-12
R04 N03 Port2 1.16e-01
.ENDS GRM0225C1HR60BA03
