*----------------------------------------------------------------------
* SPICE Model generated by Murata Manufacturing Co., Ltd.
* Copyright(C) Murata Manufacturing Co., Ltd.
* Description :0402M(01005)/CK(-55to125[deg])/7.00e-07[uF]/25[V]
* Murata P/N :GRM0224C1ER70WA03
* Property : C = 7.00e-07[uF]
* Data Generated on Nov 26, 2021
*----------------------------------------------------------------------
* Applicable Conditions:
*   Frequency Range = 100[MHz]-20[GHz]
*   Temperature = 25 degC
*   DC Bias Voltage = 0V
*   Small Signal Operation
*----------------------------------------------------------------------
.SUBCKT GRM0224C1ER70WA03 Port1 Port2
C01 Port1 N01 7.00e-13
R01 Port1 N01 1.00e+10
L02 N01 N02 2.33e-10
R03 N02 N03 5.70e-01
L04 N03 Port2 3.15e-12
R04 N03 Port2 3.45e-01
.ENDS GRM0224C1ER70WA03
