* LED: Chip LED 0603 LB Q39E
* (c) 2022, OSRAM Opto Semiconductors GmbH. All rights reserved.

* Valid for Vf(binning) = 2.85 V and If(binning) = 5.00 mA
* VERSION: 7
.MODEL LB_Q39E_typ D
+ IS=1.357522101222778e-21
+ N=2.542008063039495
+ RS=11.88192287506265
+ Tnom=25
+ EG=3.538026165574638
+ XTI=1.0000000000000000
+ TRS1=-0.005569180730781349
+ TRS2=0.0001424710721492339
+ mfg=OSRAM_OS

* Valid for bin '3Y' with Vf(binning) = 2.80 V and If(binning) = 5.00 mA
* VERSION: 7
.MODEL LB_Q39E_3Y-max D
+ IS=1.357522101223622e-21
+ N=2.542008063039533
+ RS=1.589304340571876
+ Tnom=25
+ EG=3.538026069048153
+ XTI=1.0000000000000000
+ TRS1=-0.04163620995547195
+ TRS2=0.001065139130427585
+ mfg=OSRAM_OS

* Valid for bin '3Z' with Vf(binning) = 2.80 V and If(binning) = 5.00 mA
* VERSION: 7
.MODEL LB_Q39E_3Z-min D
+ IS=1.357522101223622e-21
+ N=2.542008063039533
+ RS=1.589304340571876
+ Tnom=25
+ EG=3.538026069048153
+ XTI=1.0000000000000000
+ TRS1=-0.04163620995547195
+ TRS2=0.001065139130427585
+ mfg=OSRAM_OS

* Valid for bin '3Z' with Vf(binning) = 2.85 V and If(binning) = 5.00 mA
* VERSION: 7
.MODEL LB_Q39E_3Z-mid D
+ IS=1.357522101221834e-21
+ N=2.542008063039453
+ RS=11.58930434057215
+ Tnom=25
+ EG=3.538026109602124
+ XTI=1.0000000000000000
+ TRS1=-0.005709798147982035
+ TRS2=0.0001460683237192988
+ mfg=OSRAM_OS

* Valid for bin '3Z' with Vf(binning) = 2.90 V and If(binning) = 5.00 mA
* VERSION: 7
.MODEL LB_Q39E_3Z-max D
+ IS=1.357522101223344e-21
+ N=2.542008063039521
+ RS=21.58930434057185
+ Tnom=25
+ EG=3.538026126142247
+ XTI=1.0000000000000000
+ TRS1=-0.003065063143042156
+ TRS2=7.841060347361876e-05
+ mfg=OSRAM_OS

* Valid for bin '4X' with Vf(binning) = 2.90 V and If(binning) = 5.00 mA
* VERSION: 7
.MODEL LB_Q39E_4X-min D
+ IS=1.357522101223344e-21
+ N=2.542008063039521
+ RS=21.58930434057185
+ Tnom=25
+ EG=3.538026126142247
+ XTI=1.0000000000000000
+ TRS1=-0.003065063143042156
+ TRS2=7.841060347361876e-05
+ mfg=OSRAM_OS

* Valid for bin '4X' with Vf(binning) = 2.95 V and If(binning) = 5.00 mA
* VERSION: 7
.MODEL LB_Q39E_4X-mid D
+ IS=1.357522101222467e-21
+ N=2.542008063039482
+ RS=31.58930434057197
+ Tnom=25
+ EG=3.538026081067288
+ XTI=1.0000000000000000
+ TRS1=-0.002094779024564034
+ TRS2=5.35887176805429e-05
+ mfg=OSRAM_OS

* Valid for bin '4X' with Vf(binning) = 3.00 V and If(binning) = 5.00 mA
* VERSION: 7
.MODEL LB_Q39E_4X-max D
+ IS=1.357522101222811e-21
+ N=2.542008063039495
+ RS=41.58930434057216
+ Tnom=25
+ EG=3.538026097050589
+ XTI=1.0000000000000000
+ TRS1=-0.001591096417078791
+ TRS2=4.07034982663684e-05
+ mfg=OSRAM_OS

* Valid for bin '4Y' with Vf(binning) = 3.00 V and If(binning) = 5.00 mA
* VERSION: 7
.MODEL LB_Q39E_4Y-min D
+ IS=1.357522101222811e-21
+ N=2.542008063039495
+ RS=41.58930434057216
+ Tnom=25
+ EG=3.538026097050589
+ XTI=1.0000000000000000
+ TRS1=-0.001591096417078791
+ TRS2=4.07034982663684e-05
+ mfg=OSRAM_OS

* Valid for bin '4Y' with Vf(binning) = 3.05 V and If(binning) = 5.00 mA
* VERSION: 7
.MODEL LB_Q39E_4Y-mid D
+ IS=1.357522101223188e-21
+ N=2.542008063039512
+ RS=51.58930434057205
+ Tnom=25
+ EG=3.538026043021246
+ XTI=1.0000000000000000
+ TRS1=-0.001282681014035581
+ TRS2=3.28135866885287e-05
+ mfg=OSRAM_OS

* Valid for bin '4Y' with Vf(binning) = 3.10 V and If(binning) = 5.00 mA
* VERSION: 7
.MODEL LB_Q39E_4Y-max D
+ IS=1.357522101223033e-21
+ N=2.542008063039505
+ RS=61.58930434057214
+ Tnom=25
+ EG=3.538026117258138
+ XTI=1.0000000000000195
+ TRS1=-0.001074416927051342
+ TRS2=2.748578297092161e-05
+ mfg=OSRAM_OS

