*----------------------------------------------------------------------
* SPICE Model generated by Murata Manufacturing Co., Ltd.
* Copyright(C) Murata Manufacturing Co., Ltd.
* Description :0402M(01005)/C0G(-55to125[deg])/9.90e-06[uF]/16[V]
* Murata P/N :GRM0225C1C9R9DA03
* Property : C = 9.90e-06[uF]
* Data Generated on Nov 26, 2021
*----------------------------------------------------------------------
* Applicable Conditions:
*   Frequency Range = 100[MHz]-9[GHz]
*   Temperature = 25 degC
*   DC Bias Voltage = 0V
*   Small Signal Operation
*----------------------------------------------------------------------
.SUBCKT GRM0225C1C9R9DA03 Port1 Port2
C01 Port1 N01 9.90e-12
R01 Port1 N01 1.00e+10
L02 N01 N02 1.52e-10
R03 N02 N03 1.27e-01
L04 N03 N04 9.13e-12
R04 N03 N04 3.26e-01
L05 N04 Port2 6.65e-12
R05 N04 Port2 8.58e-02
.ENDS GRM0225C1C9R9DA03
