*----------------------------------------------------------------------
* SPICE Model generated by Murata Manufacturing Co., Ltd.
* Copyright(C) Murata Manufacturing Co., Ltd.
* Description :0402M(01005)/C0G(-55to125[deg])/1.90e-06[uF]/25[V]
* Murata P/N :GRM0225C1E1R9BA03
* Property : C = 1.90e-06[uF]
* Data Generated on Nov 26, 2021
*----------------------------------------------------------------------
* Applicable Conditions:
*   Frequency Range = 100[MHz]-20[GHz]
*   Temperature = 25 degC
*   DC Bias Voltage = 0V
*   Small Signal Operation
*----------------------------------------------------------------------
.SUBCKT GRM0225C1E1R9BA03 Port1 Port2
C01 Port1 N01 1.90e-12
R01 Port1 N01 1.00e+10
L02 N01 N02 2.24e-10
R03 N02 N03 2.83e-01
L04 N03 N04 6.82e-12
R04 N03 N04 5.90e-01
L05 N04 Port2 1.18e-11
R05 N04 Port2 1.24e-01
.ENDS GRM0225C1E1R9BA03
