*----------------------------------------------------------------------
* SPICE Model generated by Murata Manufacturing Co., Ltd.
* Copyright(C) Murata Manufacturing Co., Ltd.
* Description :0402M(01005)/C0G(-55to125[deg])/1.20e-05[uF]/25[V]
* Murata P/N :GRM0225C1E120JA03
* Property : C = 1.20e-05[uF]
* Data Generated on Nov 26, 2021
*----------------------------------------------------------------------
* Applicable Conditions:
*   Frequency Range = 100[MHz]-9[GHz]
*   Temperature = 25 degC
*   DC Bias Voltage = 0V
*   Small Signal Operation
*----------------------------------------------------------------------
.SUBCKT GRM0225C1E120JA03 Port1 Port2
C01 Port1 N01 1.20e-11
R01 Port1 N01 1.00e+10
L02 N01 N02 1.53e-10
R03 N02 N03 1.92e-01
L04 N03 N04 7.23e-12
R04 N03 N04 1.41e-01
C05 N04 Port2 5.72e-11
L05 N04 Port2 5.72e-12
R05 N04 Port2 9.22e-01
.ENDS GRM0225C1E120JA03
