*----------------------------------------------------------------------
* SPICE Model generated by Murata Manufacturing Co., Ltd.
* Copyright(C) Murata Manufacturing Co., Ltd.
* Description :3225M(1210)/X7R(-55to125[deg])/2.20e-01[uF]/250[V]
* Murata P/N :GRM32DR72E224KW01
* Property : C = 2.20e-01[uF]
* Data Generated on Nov 26, 2021
*----------------------------------------------------------------------
* Applicable Conditions:
*   Frequency Range = 100[kHz]-6[GHz]
*   Temperature = 25 degC
*   DC Bias Voltage = 0V
*   Small Signal Operation
*----------------------------------------------------------------------
.SUBCKT GRM32DR72E224KW01 Port1 Port2
C01 Port1 N01 2.10e-07
R01 Port1 N01 4.55e+08
L02 N01 N02 2.50e-11
R03 N02 N03 6.80e-03
C04 N03 N04 1.58e-05
R04 N03 N04 1.26e-01
C05 N04 N05 2.06e-05
R05 N04 N05 1.29e-02
C06 N05 N06 8.07e-06
R06 N05 N06 5.19e-03
L07 N06 N07 2.39e-10
R07 N06 N07 8.00e-02
C08 N07 N08 1.71e-12
L08 N07 N08 3.21e-10
R08 N07 N08 3.35e+01
C09 N08 N09 1.50e-11
L09 N08 N09 1.38e-10
R09 N08 N09 9.83e+00
C10 N09 N10 3.04e-07
L10 N09 N10 4.51e-11
R10 N09 N10 4.03e-02
C11 N10 Port2 5.45e-07
L11 N10 Port2 6.37e-11
R11 N10 Port2 4.58e-02
.ENDS GRM32DR72E224KW01
