*----------------------------------------------------------------------
* SPICE Model generated by Murata Manufacturing Co., Ltd.
* Copyright(C) Murata Manufacturing Co., Ltd.
* Description :3225M(1210)/X7R(-55to125[deg])/1.50e-02[uF]/1000[V]
* Murata P/N :GRM32DR73A153KW01
* Property : C = 1.50e-02[uF]
* Data Generated on Nov 26, 2021
*----------------------------------------------------------------------
* Applicable Conditions:
*   Frequency Range = 100[kHz]-6[GHz]
*   Temperature = 25 degC
*   DC Bias Voltage = 0V
*   Small Signal Operation
*----------------------------------------------------------------------
.SUBCKT GRM32DR73A153KW01 Port1 Port2
C01 Port1 N01 1.43e-08
R01 Port1 N01 6.67e+09
L02 N01 N02 3.00e-11
R03 N02 N03 4.00e-02
C04 N03 N04 7.91e-07
R04 N03 N04 3.35e+00
C05 N04 N05 1.23e-06
R05 N04 N05 2.59e-01
C06 N05 N06 9.00e-07
R06 N05 N06 5.20e-02
C07 N06 N07 4.65e-07
R07 N06 N07 1.56e-02
L08 N07 N08 9.18e-11
R08 N07 N08 2.41e-01
C09 N08 N09 9.74e-13
L09 N08 N09 2.31e-10
R09 N08 N09 2.18e+01
C10 N09 N10 6.36e-12
L10 N09 N10 1.69e-10
R10 N09 N10 1.04e+01
C11 N10 N11 1.33e-11
L11 N10 N11 1.99e-10
R11 N10 N11 1.61e+01
C12 N11 N12 1.04e-08
L12 N11 N12 4.59e-11
R12 N11 N12 1.34e-01
C13 N12 Port2 4.42e-08
L13 N12 Port2 3.66e-11
R13 N12 Port2 1.12e-01
.ENDS GRM32DR73A153KW01
