*----------------------------------------------------------------------
* SPICE Model generated by Murata Manufacturing Co., Ltd.
* Copyright(C) Murata Manufacturing Co., Ltd.
* Description :3225M(1210)/X7R(-55to125[deg])/2.20e-02[uF]/630[V]
* Murata P/N :GRM32QR72J223KW01
* Property : C = 2.20e-02[uF]
* Data Generated on Nov 26, 2021
*----------------------------------------------------------------------
* Applicable Conditions:
*   Frequency Range = 100[kHz]-6[GHz]
*   Temperature = 25 degC
*   DC Bias Voltage = 0V
*   Small Signal Operation
*----------------------------------------------------------------------
.SUBCKT GRM32QR72J223KW01 Port1 Port2
C01 Port1 N01 2.12e-08
R01 Port1 N01 4.55e+09
L02 N01 N02 7.00e-11
R03 N02 N03 2.80e-02
C04 N03 N04 1.31e-06
R04 N03 N04 2.03e+00
C05 N04 N05 1.62e-06
R05 N04 N05 1.97e-01
C06 N05 N06 1.59e-06
R06 N05 N06 2.94e-02
C07 N06 N07 6.22e-07
R07 N06 N07 1.35e-02
C08 N07 N08 1.55e-12
L08 N07 N08 3.34e-10
R08 N07 N08 2.80e+01
C09 N08 N09 1.44e-11
L09 N08 N09 1.05e-10
R09 N08 N09 1.03e+01
C10 N09 N10 5.04e-10
L10 N09 N10 1.00e-10
R10 N09 N10 1.80e-01
C11 N10 N11 1.99e-08
L11 N10 N11 3.19e-11
R11 N10 N11 7.77e-02
C12 N11 Port2 3.89e-08
L12 N11 Port2 5.38e-11
R12 N11 Port2 9.21e-02
.ENDS GRM32QR72J223KW01
