*----------------------------------------------------------------------
* SPICE Model generated by Murata Manufacturing Co., Ltd.
* Copyright(C) Murata Manufacturing Co., Ltd.
* Description :3225M(1210)/X7R(-55to125[deg])/6.80e-02[uF]/250[V]
* Murata P/N :GRM32QR72E683KW01
* Property : C = 6.80e-02[uF]
* Data Generated on Nov 26, 2021
*----------------------------------------------------------------------
* Applicable Conditions:
*   Frequency Range = 100[kHz]-6[GHz]
*   Temperature = 25 degC
*   DC Bias Voltage = 0V
*   Small Signal Operation
*----------------------------------------------------------------------
.SUBCKT GRM32QR72E683KW01 Port1 Port2
C01 Port1 N01 6.62e-08
R01 Port1 N01 1.47e+09
L02 N01 N02 5.00e-11
R03 N02 N03 1.95e-02
C04 N03 N04 4.47e-06
R04 N03 N04 5.08e-01
C05 N04 N05 5.07e-06
R05 N04 N05 5.23e-02
C06 N05 N06 2.47e-06
R06 N05 N06 1.08e-02
C07 N06 N07 1.67e-12
L07 N06 N07 3.82e-10
R07 N06 N07 3.39e+01
C08 N07 N08 1.61e-11
L08 N07 N08 1.44e-10
R08 N07 N08 9.06e+00
C09 N08 N09 2.41e-09
L09 N08 N09 7.00e-11
R09 N08 N09 7.76e-02
C10 N09 N10 4.94e-08
L10 N09 N10 4.24e-11
R10 N09 N10 4.91e-02
C11 N10 Port2 1.43e-07
L11 N10 Port2 4.60e-11
R11 N10 Port2 4.14e-02
.ENDS GRM32QR72E683KW01
