*----------------------------------------------------------------------
* SPICE Model generated by Murata Manufacturing Co., Ltd.
* Copyright(C) Murata Manufacturing Co., Ltd.
* Description :3225M(1210)/X7R(-55to125[deg])/2.20e-02[uF]/1000[V]
* Murata P/N :GRM32DR73A223KW01
* Property : C = 2.20e-02[uF]
* Data Generated on Nov 26, 2021
*----------------------------------------------------------------------
* Applicable Conditions:
*   Frequency Range = 100[kHz]-6[GHz]
*   Temperature = 25 degC
*   DC Bias Voltage = 0V
*   Small Signal Operation
*----------------------------------------------------------------------
.SUBCKT GRM32DR73A223KW01 Port1 Port2
C01 Port1 N01 2.11e-08
R01 Port1 N01 4.55e+09
L02 N01 N02 1.00e-10
R03 N02 N03 2.20e-02
C04 N03 N04 1.31e-06
R04 N03 N04 2.02e+00
C05 N04 N05 1.63e-06
R05 N04 N05 1.95e-01
C06 N05 N06 1.16e-06
R06 N05 N06 3.11e-02
C07 N06 N07 8.43e-07
R07 N06 N07 9.93e-03
L08 N07 N08 1.32e-10
R08 N07 N08 1.92e-01
C09 N08 N09 1.97e-12
L09 N08 N09 2.87e-10
R09 N08 N09 3.35e+01
C10 N09 N10 1.19e-11
L10 N09 N10 1.65e-10
R10 N09 N10 1.39e+01
C11 N10 N11 1.91e-08
L11 N10 N11 6.32e-11
R11 N10 N11 1.51e-01
C12 N11 Port2 4.46e-08
L12 N11 Port2 7.01e-11
R12 N11 Port2 1.68e-01
.ENDS GRM32DR73A223KW01
