*----------------------------------------------------------------------
* SPICE Model generated by Murata Manufacturing Co., Ltd.
* Copyright(C) Murata Manufacturing Co., Ltd.
* Description :3225M(1210)/X7R(-55to125[deg])/1.50e-01[uF]/250[V]
* Murata P/N :GRM32QR72E154KW01
* Property : C = 1.50e-01[uF]
* Data Generated on Nov 26, 2021
*----------------------------------------------------------------------
* Applicable Conditions:
*   Frequency Range = 100[kHz]-6[GHz]
*   Temperature = 25 degC
*   DC Bias Voltage = 0V
*   Small Signal Operation
*----------------------------------------------------------------------
.SUBCKT GRM32QR72E154KW01 Port1 Port2
C01 Port1 N01 1.39e-07
R01 Port1 N01 6.67e+08
L02 N01 N02 5.00e-11
R03 N02 N03 1.12e-02
C04 N03 N04 1.13e-05
R04 N03 N04 1.77e-01
C05 N04 N05 1.55e-05
R05 N04 N05 2.06e-02
C06 N05 N06 4.60e-06
R06 N05 N06 7.86e-03
C07 N06 N07 1.94e-05
R07 N06 N07 7.45e-04
C08 N07 N08 1.31e-12
L08 N07 N08 3.44e-10
R08 N07 N08 4.24e+01
C09 N08 N09 1.51e-11
L09 N08 N09 8.68e-11
R09 N08 N09 8.15e+00
C10 N09 N10 2.41e-09
L10 N09 N10 1.17e-10
R10 N09 N10 7.25e-02
C11 N10 N11 1.03e-07
L11 N10 N11 5.03e-11
R11 N10 N11 3.43e-02
C12 N11 Port2 2.91e-07
L12 N11 Port2 5.72e-11
R12 N11 Port2 3.52e-02
.ENDS GRM32QR72E154KW01
