*----------------------------------------------------------------------
* SPICE Model generated by Murata Manufacturing Co., Ltd.
* Copyright(C) Murata Manufacturing Co., Ltd.
* Description :3225M(1210)/X7R(-55to125[deg])/1.00e-01[uF]/250[V]
* Murata P/N :GRM32DR72E104KW01
* Property : C = 1.00e-01[uF]
* Data Generated on Nov 26, 2021
*----------------------------------------------------------------------
* Applicable Conditions:
*   Frequency Range = 100[kHz]-6[GHz]
*   Temperature = 25 degC
*   DC Bias Voltage = 0V
*   Small Signal Operation
*----------------------------------------------------------------------
.SUBCKT GRM32DR72E104KW01 Port1 Port2
C01 Port1 N01 9.50e-08
R01 Port1 N01 1.00e+09
L02 N01 N02 9.20e-11
R03 N02 N03 1.55e-02
C04 N03 N04 6.81e-06
R04 N03 N04 2.92e-01
C05 N04 N05 1.04e-05
R05 N04 N05 3.05e-02
C06 N05 N06 6.72e-06
R06 N05 N06 9.86e-03
C07 N06 N07 3.75e-05
R07 N06 N07 3.85e-04
L08 N07 N08 8.05e-11
R08 N07 N08 7.14e-02
C09 N08 N09 2.42e-12
L09 N08 N09 1.16e-10
R09 N08 N09 1.46e+01
C10 N09 N10 3.73e-12
L10 N09 N10 2.51e-10
R10 N09 N10 1.71e+01
C11 N10 N11 1.74e-11
L11 N10 N11 1.73e-10
R11 N10 N11 1.06e+01
C12 N11 N12 9.40e-08
L12 N11 N12 4.79e-11
R12 N11 N12 5.02e-02
C13 N12 Port2 2.33e-07
L13 N12 Port2 5.61e-11
R13 N12 Port2 4.45e-02
.ENDS GRM32DR72E104KW01
