*----------------------------------------------------------------------
* SPICE Model generated by Murata Manufacturing Co., Ltd.
* Copyright(C) Murata Manufacturing Co., Ltd.
* Description :1005M(0402)/X7R(-55to125[deg])/2.20e-02[uF]/25[V]
* Murata P/N :GRM155R71E223JA61
* Property : C = 2.20e-02[uF]
* Data Generated on Nov 26, 2021
*----------------------------------------------------------------------
* Applicable Conditions:
*   Frequency Range = 100[Hz]-6[GHz]
*   Temperature = 25 degC
*   DC Bias Voltage = 0V
*   Small Signal Operation
*----------------------------------------------------------------------
.SUBCKT GRM155R71E223JA61 Port1 Port2
C01 Port1 N01 2.20e-08
R01 Port1 N01 1.00e+10
L02 N01 N02 1.64e-10
R03 N02 N03 5.34e-02
C04 N03 N04 2.35e-06
R04 N03 N04 7.83e+02
C05 N04 N05 3.47e-06
R05 N04 N05 5.17e+01
C06 N05 N06 3.00e-06
R06 N05 N06 8.01e+00
C07 N06 N07 2.72e-06
R07 N06 N07 1.03e+00
C08 N07 N08 1.95e-06
R08 N07 N08 1.75e-01
C09 N08 N09 1.59e-06
R09 N08 N09 3.20e-02
L10 N09 N10 1.96e-11
R10 N09 N10 5.29e-01
L11 N10 N11 5.62e-11
R11 N10 N11 1.30e-01
C12 N11 N12 1.85e-07
L12 N11 N12 6.57e-12
R12 N11 N12 1.20e-02
C13 N12 N13 8.06e-08
L13 N12 N13 8.03e-12
R13 N12 N13 2.01e-02
C14 N13 Port2 3.42e-12
L14 N13 Port2 1.02e-10
R14 N13 Port2 1.69e+01
.ENDS GRM155R71E223JA61
