*----------------------------------------------------------------------
* SPICE Model generated by Murata Manufacturing Co., Ltd.
* Copyright(C) Murata Manufacturing Co., Ltd.
* Description :3225M(1210)/C0G(-55to125[deg])/3.30e-02[uF]/630[V]
* Murata P/N :GRM32E5C2J333JWAA
* Property : C = 3.30e-02[uF]
* Data Generated on Nov 26, 2021
*----------------------------------------------------------------------
* Applicable Conditions:
*   Frequency Range = 100[kHz]-1000[MHz]
*   Temperature = 25 degC
*   DC Bias Voltage = 0V
*   Small Signal Operation
*----------------------------------------------------------------------
.SUBCKT GRM32E5C2J333JWAA Port1 Port2
C01 Port1 N01 3.22e-08
R01 Port1 N01 3.03e+09
L02 N01 N02 1.26e-10
R03 N02 N03 4.44e-03
C04 N03 N04 1.46e-04
R04 N03 N04 2.64e-02
L05 N04 N05 9.35e-11
R05 N04 N05 1.18e-01
L06 N05 N06 6.88e-11
R06 N05 N06 8.23e-02
L07 N06 N07 6.76e-13
R07 N06 N07 3.16e-02
L08 N07 N08 8.23e-11
R08 N07 N08 2.55e-03
C09 N08 N09 5.30e-08
L09 N08 N09 1.51e-10
R09 N08 N09 7.44e-01
C10 N09 N10 4.01e-08
L10 N09 N10 8.22e-11
R10 N09 N10 4.15e-01
C11 N10 N11 8.13e-08
L11 N10 N11 2.05e-11
R11 N10 N11 2.02e-01
C12 N11 N12 5.44e-08
L12 N11 N12 1.93e-11
R12 N11 N12 1.39e-01
C13 N12 N13 2.74e-08
L13 N12 N13 2.20e-11
R13 N12 N13 8.03e-02
C14 N13 Port2 1.77e-12
L14 N13 Port2 3.45e-10
R14 N13 Port2 2.48e+02
.ENDS GRM32E5C2J333JWAA
