*----------------------------------------------------------------------
* SPICE Model generated by Murata Manufacturing Co., Ltd.
* Copyright(C) Murata Manufacturing Co., Ltd.
* Description :3225M(1210)/C0G(-55to125[deg])/1.50e-02[uF]/630[V]
* Murata P/N :GRM32D5C2J153JWA1
* Property : C = 1.50e-02[uF]
* Data Generated on Nov 26, 2021
*----------------------------------------------------------------------
* Applicable Conditions:
*   Frequency Range = 100[kHz]-1000[MHz]
*   Temperature = 25 degC
*   DC Bias Voltage = 0V
*   Small Signal Operation
*----------------------------------------------------------------------
.SUBCKT GRM32D5C2J153JWA1 Port1 Port2
C01 Port1 N01 1.46e-08
R01 Port1 N01 6.67e+09
L02 N01 N02 1.46e-10
R03 N02 N03 4.50e-03
C04 N03 N04 1.54e-04
R04 N03 N04 2.45e-02
L05 N04 N05 8.50e-11
R05 N04 N05 2.33e-01
L06 N05 N06 2.14e-13
R06 N05 N06 1.00e-02
L07 N06 N07 4.44e-11
R07 N06 N07 3.24e-03
L08 N07 N08 1.87e-11
R08 N07 N08 1.17e-03
C09 N08 N09 3.23e-08
L09 N08 N09 8.02e-11
R09 N08 N09 5.56e-01
C10 N09 N10 1.64e-08
L10 N09 N10 6.05e-11
R10 N09 N10 5.22e-01
C11 N10 N11 4.18e-08
L11 N10 N11 1.13e-11
R11 N10 N11 1.52e-01
C12 N11 N12 1.76e-08
L12 N11 N12 1.60e-11
R12 N11 N12 1.76e-01
C13 N12 N13 1.27e-08
L13 N12 N13 1.05e-11
R13 N12 N13 9.72e-02
C14 N13 N14 2.86e-08
L14 N13 N14 7.61e-13
R14 N13 N14 9.04e-03
C15 N14 Port2 1.59e-12
L15 N14 Port2 4.14e-10
R15 N14 Port2 3.67e+02
.ENDS GRM32D5C2J153JWA1
