*----------------------------------------------------------------------
* SPICE Model generated by Murata Manufacturing Co., Ltd.
* Copyright(C) Murata Manufacturing Co., Ltd.
* Description :1608M(0603)/X7R(-55to125[deg])/3.30e-04[uF]/250[V]
* Murata P/N :GRM188R72E331KW07
* Property : C = 3.30e-04[uF]
* Data Generated on Nov 26, 2021
*----------------------------------------------------------------------
* Applicable Conditions:
*   Frequency Range = 100[kHz]-6[GHz]
*   Temperature = 25 degC
*   DC Bias Voltage = 0V
*   Small Signal Operation
*----------------------------------------------------------------------
.SUBCKT GRM188R72E331KW07 Port1 Port2
C01 Port1 N01 4.10e-10
R01 Port1 N01 1.00e+10
L02 N01 N02 1.20e-10
R03 N02 N03 4.21e-01
C04 N03 N04 1.28e-09
R04 N03 N04 2.48e+03
C05 N04 N05 3.21e-08
R05 N04 N05 3.30e+00
C06 N05 N06 1.62e-08
R06 N05 N06 1.97e+00
C07 N06 N07 6.45e-09
R07 N06 N07 7.71e-01
C08 N07 N08 1.84e-09
R08 N07 N08 5.40e-01
C09 N08 N09 1.54e-12
L09 N08 N09 1.54e-10
R09 N08 N09 2.58e+01
C10 N09 N10 3.63e-12
L10 N09 N10 1.76e-10
R10 N09 N10 1.17e+01
C11 N10 Port2 1.81e-10
L11 N10 Port2 5.47e-11
R11 N10 Port2 7.17e-01
.ENDS GRM188R72E331KW07
