*----------------------------------------------------------------------
* SPICE Model generated by Murata Manufacturing Co., Ltd.
* Copyright(C) Murata Manufacturing Co., Ltd.
* Description :1608M(0603)/X7R(-55to125[deg])/1.50e-03[uF]/250[V]
* Murata P/N :GRM188R72E152KW07
* Property : C = 1.50e-03[uF]
* Data Generated on Nov 26, 2021
*----------------------------------------------------------------------
* Applicable Conditions:
*   Frequency Range = 100[kHz]-6[GHz]
*   Temperature = 25 degC
*   DC Bias Voltage = 0V
*   Small Signal Operation
*----------------------------------------------------------------------
.SUBCKT GRM188R72E152KW07 Port1 Port2
C01 Port1 N01 1.60e-09
R01 Port1 N01 1.00e+10
L02 N01 N02 3.00e-11
R03 N02 N03 1.55e-01
C04 N03 N04 2.10e-08
R04 N03 N04 1.51e+02
C05 N04 N05 1.07e-07
R05 N04 N05 1.86e+00
C06 N05 N06 1.16e-07
R06 N05 N06 4.59e-01
C07 N06 N07 4.73e-08
R07 N06 N07 2.24e-01
C08 N07 N08 1.64e-08
R08 N07 N08 1.14e-01
C09 N08 N09 9.18e-13
L09 N08 N09 2.71e-10
R09 N08 N09 4.95e+01
C10 N09 N10 5.51e-12
L10 N09 N10 1.23e-10
R10 N09 N10 1.18e+01
C11 N10 N11 5.69e-10
L11 N10 N11 5.49e-11
R11 N10 N11 3.03e-01
C12 N11 Port2 7.53e-09
L12 N11 Port2 1.52e-11
R12 N11 Port2 9.88e-02
.ENDS GRM188R72E152KW07
