*----------------------------------------------------------------------
* SPICE Model generated by Murata Manufacturing Co., Ltd.
* Copyright(C) Murata Manufacturing Co., Ltd.
* Description :1608M(0603)/B(-25to85[deg])/2.20e+01[uF]/4[V]
* Murata P/N :GRM188B30G226MEA0
* Property : C = 2.20e+01[uF]
* Data Generated on Nov 26, 2021
*----------------------------------------------------------------------
* Applicable Conditions:
*   Frequency Range = 100[Hz]-6[GHz]
*   Temperature = 25 degC
*   DC Bias Voltage = 0V
*   Small Signal Operation
*----------------------------------------------------------------------
.SUBCKT GRM188B30G226MEA0 Port1 Port2
C01 Port1 N01 1.59e-05
R01 Port1 N01 2.27e+06
L02 N01 N02 1.97e-14
R03 N02 N03 2.42e-03
C04 N03 N04 6.06e-04
R04 N03 N04 8.96e+00
C05 N04 N05 7.29e-04
R05 N04 N05 6.86e-01
C06 N05 N06 1.18e-03
R06 N05 N06 4.24e-02
C07 N06 N07 1.22e-03
R07 N06 N07 4.11e-03
C08 N07 N08 1.17e-03
R08 N07 N08 4.36e-04
L09 N08 N09 1.96e-11
R09 N08 N09 1.33e-01
L10 N09 N10 5.61e-11
R10 N09 N10 4.02e-02
L11 N10 N11 3.46e-10
R11 N10 N11 1.31e-02
L12 N11 N12 1.54e-12
R12 N11 N12 9.02e-03
C13 N12 N13 2.03e-05
L13 N12 N13 1.25e-10
R13 N12 N13 3.54e-03
C14 N13 Port2 1.26e-12
L14 N13 Port2 2.24e-10
R14 N13 Port2 1.96e+02
.ENDS GRM188B30G226MEA0
