*----------------------------------------------------------------------
* SPICE Model generated by Murata Manufacturing Co., Ltd.
* Copyright(C) Murata Manufacturing Co., Ltd.
* Description :1608M(0603)/X7R(-55to125[deg])/2.20e-04[uF]/250[V]
* Murata P/N :GRM188R72E221KW07
* Property : C = 2.20e-04[uF]
* Data Generated on Nov 26, 2021
*----------------------------------------------------------------------
* Applicable Conditions:
*   Frequency Range = 100[kHz]-6[GHz]
*   Temperature = 25 degC
*   DC Bias Voltage = 0V
*   Small Signal Operation
*----------------------------------------------------------------------
.SUBCKT GRM188R72E221KW07 Port1 Port2
C01 Port1 N01 3.30e-10
R01 Port1 N01 1.00e+10
L02 N01 N02 8.50e-11
R03 N02 N03 5.52e-01
C04 N03 N04 6.05e-10
R04 N03 N04 5.26e+03
C05 N04 N05 1.67e-08
R05 N04 N05 6.37e+00
C06 N05 N06 9.42e-09
R06 N05 N06 3.38e+00
C07 N06 N07 3.79e-09
R07 N06 N07 1.05e+00
C08 N07 N08 1.16e-09
R08 N07 N08 7.25e-01
C09 N08 N09 1.18e-12
L09 N08 N09 2.03e-10
R09 N08 N09 3.39e+01
C10 N09 Port2 3.93e-12
L10 N09 Port2 2.48e-10
R10 N09 Port2 1.12e+01
.ENDS GRM188R72E221KW07
