*----------------------------------------------------------------------
* SPICE Model generated by Murata Manufacturing Co., Ltd.
* Copyright(C) Murata Manufacturing Co., Ltd.
* Description :1608M(0603)/X7R(-55to125[deg])/2.20e+00[uF]/10[V]
* Murata P/N :GRM188R71A225KE15
* Property : C = 2.20e+00[uF]
* Data Generated on Nov 26, 2021
*----------------------------------------------------------------------
* Applicable Conditions:
*   Frequency Range = 100[Hz]-6[GHz]
*   Temperature = 25 degC
*   DC Bias Voltage = 0V
*   Small Signal Operation
*----------------------------------------------------------------------
.SUBCKT GRM188R71A225KE15 Port1 Port2
C01 Port1 N01 1.65e-06
R01 Port1 N01 2.27e+07
L02 N01 N02 3.02e-11
R03 N02 N03 5.83e-03
C04 N03 N04 2.10e-05
R04 N03 N04 2.58e+02
C05 N04 N05 4.23e-05
R05 N04 N05 8.99e+00
C06 N05 N06 4.19e-05
R06 N05 N06 9.08e-01
C07 N06 N07 3.31e-05
R07 N06 N07 1.15e-01
C08 N07 N08 2.76e-05
R08 N07 N08 1.38e-02
L09 N08 N09 1.10e-11
R09 N08 N09 8.50e-02
L10 N09 N10 2.97e-11
R10 N09 N10 5.71e-02
L11 N10 N11 1.96e-10
R11 N10 N11 2.98e-02
C12 N11 N12 4.80e-06
L12 N11 N12 4.70e-11
R12 N11 N12 7.43e-03
C13 N12 N13 3.20e-06
L13 N12 N13 3.63e-11
R13 N12 N13 8.73e-03
C14 N13 Port2 9.09e-13
L14 N13 Port2 2.45e-10
R14 N13 Port2 1.59e+02
.ENDS GRM188R71A225KE15
