*----------------------------------------------------------------------
* SPICE Model generated by Murata Manufacturing Co., Ltd.
* Copyright(C) Murata Manufacturing Co., Ltd.
* Description :1608M(0603)/X7R(-55to125[deg])/4.70e-04[uF]/250[V]
* Murata P/N :GRM188R72E471KW07
* Property : C = 4.70e-04[uF]
* Data Generated on Nov 26, 2021
*----------------------------------------------------------------------
* Applicable Conditions:
*   Frequency Range = 100[kHz]-6[GHz]
*   Temperature = 25 degC
*   DC Bias Voltage = 0V
*   Small Signal Operation
*----------------------------------------------------------------------
.SUBCKT GRM188R72E471KW07 Port1 Port2
C01 Port1 N01 5.80e-10
R01 Port1 N01 1.00e+10
L02 N01 N02 2.00e-11
R03 N02 N03 2.90e-01
C04 N03 N04 2.63e-09
R04 N03 N04 1.21e+03
C05 N04 N05 3.64e-08
R05 N04 N05 3.64e+00
C06 N05 N06 2.92e-08
R06 N05 N06 1.21e+00
C07 N06 N07 1.07e-08
R07 N06 N07 5.94e-01
C08 N07 N08 2.51e-09
R08 N07 N08 3.96e-01
L09 N08 N09 5.20e-11
R09 N08 N09 1.30e+00
C10 N09 N10 7.59e-13
L10 N09 N10 2.80e-10
R10 N09 N10 3.81e+01
C11 N10 N11 1.14e-11
L11 N10 N11 5.80e-11
R11 N10 N11 7.18e+00
C12 N11 N12 4.05e-10
L12 N11 N12 4.35e-11
R12 N11 N12 4.83e-01
C13 N12 Port2 3.96e-09
L13 N12 Port2 1.14e-11
R13 N12 Port2 1.68e-01
.ENDS GRM188R72E471KW07
