*----------------------------------------------------------------------
* SPICE Model generated by Murata Manufacturing Co., Ltd.
* Copyright(C) Murata Manufacturing Co., Ltd.
* Description :1608M(0603)/X7R(-55to125[deg])/6.80e-04[uF]/250[V]
* Murata P/N :GRM188R72E681KW07
* Property : C = 6.80e-04[uF]
* Data Generated on Nov 26, 2021
*----------------------------------------------------------------------
* Applicable Conditions:
*   Frequency Range = 100[kHz]-6[GHz]
*   Temperature = 25 degC
*   DC Bias Voltage = 0V
*   Small Signal Operation
*----------------------------------------------------------------------
.SUBCKT GRM188R72E681KW07 Port1 Port2
C01 Port1 N01 7.80e-10
R01 Port1 N01 1.00e+10
L02 N01 N02 6.50e-11
R03 N02 N03 2.80e-01
C04 N03 N04 5.17e-09
R04 N03 N04 6.15e+02
C05 N04 N05 5.63e-08
R05 N04 N05 2.57e+00
C06 N05 N06 3.65e-08
R06 N05 N06 9.68e-01
C07 N06 N07 1.45e-08
R07 N06 N07 4.07e-01
C08 N07 N08 6.37e-09
R08 N07 N08 1.92e-01
C09 N08 N09 8.23e-13
L09 N08 N09 2.59e-10
R09 N08 N09 3.52e+01
C10 N09 N10 5.48e-12
L10 N09 N10 1.28e-10
R10 N09 N10 1.08e+01
C11 N10 N11 5.32e-10
L11 N10 N11 3.93e-11
R11 N10 N11 3.59e-01
C12 N11 Port2 9.13e-09
L12 N11 Port2 6.57e-12
R12 N11 Port2 1.02e-01
.ENDS GRM188R72E681KW07
