*----------------------------------------------------------------------
* SPICE Model generated by Murata Manufacturing Co., Ltd.
* Copyright(C) Murata Manufacturing Co., Ltd.
* Description :1608M(0603)/X7R(-55to125[deg])/1.00e-03[uF]/250[V]
* Murata P/N :GRM188R72E102KW07
* Property : C = 1.00e-03[uF]
* Data Generated on Nov 26, 2021
*----------------------------------------------------------------------
* Applicable Conditions:
*   Frequency Range = 100[kHz]-6[GHz]
*   Temperature = 25 degC
*   DC Bias Voltage = 0V
*   Small Signal Operation
*----------------------------------------------------------------------
.SUBCKT GRM188R72E102KW07 Port1 Port2
C01 Port1 N01 1.10e-09
R01 Port1 N01 1.00e+10
L02 N01 N02 5.00e-11
R03 N02 N03 2.00e-01
C04 N03 N04 1.02e-08
R04 N03 N04 3.12e+02
C05 N04 N05 7.25e-08
R05 N04 N05 2.74e+00
C06 N05 N06 4.92e-08
R06 N05 N06 7.19e-01
C07 N06 N07 3.12e-08
R07 N06 N07 2.12e-01
C08 N07 N08 8.98e-09
R08 N07 N08 1.77e-01
C09 N08 N09 7.67e-13
L09 N08 N09 2.74e-10
R09 N08 N09 3.84e+01
C10 N09 N10 8.37e-12
L10 N09 N10 8.41e-11
R10 N09 N10 8.64e+00
C11 N10 N11 4.99e-10
L11 N10 N11 5.28e-11
R11 N10 N11 3.43e-01
C12 N11 Port2 4.27e-09
L12 N11 Port2 1.65e-11
R12 N11 Port2 1.26e-01
.ENDS GRM188R72E102KW07
