=========================================================================================================

[AP8803]
*TITLE=AP8803 MACROMODEL
*ORIGIN=DZSL_AG_GS
*SIMULATOR=DIODES, SIMETRIX
*DATE=6th Jan 2012
*VERSION=1
*PIN_ORDER   1:SW, 2:GND, 3:CTRL, 4:SET, 5:VIN
*
* SIMetrix macromodel for AL8803 Buck LED Driver

* based on work by Tim Wilson

.subckt AL8803_SIMETRIX 10  26  13   20  18
* pins-------------------1---2---3----4---5 
*names                  SW  GND CTRL SET VIN

* Vref Generator *
E2         19 26 18 26 1
B111       14 26  V=Min(V(19), 1.25)    
R3         14 19  20k  
R4         14 13  200k  

* CTRL input filter *
* Faster (but unrealistic) startup can be
* achieved by changing initial conditions
* on C1 to C3 to match the settled value.
* eg 1.25V if CTRL is floating in the application
* or equal to the external DC voltage applied to CTRL
* or equal to the average value of the PWM signal
* applied to CTRL
C1         15 26  5p IC=0 
C2         16 26  5p IC=0 
C3         17 26  5p IC=0 
R5         13 15  7.7meg  
R6         15 16  7.7meg  
R7         16 17  7.7meg  
E7         12 26 17 26 1

* CTRL lockout with hysteresis *
R8         12 adj_lockout  1000  
I1         12 adj_lockout DC 50uA  
C7         adj_lockout 12  1p IC=0 
X_S4       adj_lockout 26 adj_lockout 12 AP_S4 
X_S5       adj_lockout 26 23 26 AP_S5 

* UV lockout *
X_S6       18 26 23 26 AP_S6 

* Main Function *
G2         26 8 18 20 1m
C4         26 20  20p  
R9         26 9  3.832k  
R10        9 8  10.859k  
X_S7       23 26 9 26 AP_S7 
G3         21 26 8 12 1000m
R11        26 21  1meg  
V3         24 26 700mV
D8         24 21 Dclamp 
V4         22 26 6V
D9         21 22 Dclamp 

* Comp Delay (Asymmetric) *
E4         25 26 21 26 1
C6         26 23  25p  
R13        23 25  2k  

* Output NMOS *
X_S8       23 26 11 26 AP_S8 
R12        11 10  0.4  
C5         26 10  100p  

* Supply Current *
X_S3       adj_lockout 26 4 7 AP_S3 
R1         26 7  1.58k 
R2         26 4  67k  
X_S2       18 26 6 4 AP_S2 
V1         5 26 1V
X_F1       6 5 18 26 AP_F1 


* Timestep Control *
* Only purpose is to force timestep without using a control card *
V99        99 26 DC 0 AC 0 PULSE 0 0 0 100n 100n 500n 1u
R99        99 26 100

.model Dzener D Is=1e-8 N=10 bv=1.245 ibv=1e-12 Cjo=.1e-12 Rs=.1 TBV1=4e-5 nbv=.01 
.model Dclamp  D Is=2.682n N=1.836 Rs=.5664 Ikf=44.17m Cjo=4p M=.3333 Vj=.5

.subckt AP_F1 1 2 3 4  
F_F1       3 4 VF_F1 1
VF_F1      1 2 0V
.ends AP_F1

.subckt AP_S3 1 2 3 4  
S_S3       3 4 1 2 S3
RS_S3      1 2 1G
.MODEL     S3 VSWITCH Roff=1e6 Ron=1.0 Voff=198mV Von=200mV
.ends AP_S3

.subckt AP_S2 1 2 3 4  
S_S2       3 4 1 2 S2
RS_S2      1 2 1G
.MODEL     S2 VSWITCH Roff=1e6 Ron=1.0 Voff=1.248V Von=1.25V
.ends AP_S2

.subckt AP_S6 1 2 3 4  
S_S6       3 4 1 2 S6
RS_S6      1 2 1G
.MODEL     S6 VSWITCH Roff=10e6 Ron=1.0 Voff=6.505V Von=6.495V
.ends AP_S6

.subckt AP_S7 1 2 3 4  
S_S7       3 4 1 2 S7
RS_S7      1 2 1G
.MODEL     S7 VSWITCH Roff=10e6 Ron=1.0 Voff=2750mV Von=2755mV
.ends AP_S7

.subckt AP_S8 1 2 3 4  
S_S8       3 4 1 2 S8
RS_S8      1 2 1G
.MODEL     S8 VSWITCH Roff=10e6 Ron=1.0 Voff=2750mV Von=2755mV
.ends AP_S8

.subckt AP_S4 1 2 3 4  
S_S4       3 4 1 2 S4
RS_S4      1 2 1G
.MODEL     S4 VSWITCH Roff=10e6 Ron=1 Voff=255mV Von=245mV
.ends AP_S4

.subckt AP_S5 1 2 3 4  
S_S5       3 4 1 2 S5
RS_S5      1 2 1G
.MODEL     S5 VSWITCH Roff=10e6 Ron=1.0 Voff=251mV Von=249mV
.ends AP_S5

.ends AP8803_SIMETRIX
*
*                (c)  2012 Diodes Inc
*
*   The copyright in these models  and  the designs embodied belong
*   to Diodes Incorporated (" Zetex ").  They  are  supplied
*   free of charge by Zetex for the purpose of research and design
*   and may be used or copied intact  (including this notice)  for
*   that purpose only.  All other rights are reserved.  The models
*   are believed accurate but no condition  or warranty  as to their
*   merchantability or fitness for purpose is given and no liability
*   in respect of any use is accepted by Diodes Incorporated, its distributors
*   or agents.
*
*   Diodes Zetex Semiconductors Ltd, Zetex Technology Park, Chadderton,
*   Oldham, United Kingdom, OL9 9LL

=========================================================================================================

[AL8806]
*TITLE=AL8806 MACROMODEL
*ORIGIN=DZSL_AG_GS
*SIMULATOR=DIODES, SIMETRIX and PSPICE
*DATE=22 Jul 2013
*VERSION=3
*PIN_ORDER   1:SET, 2:GND, 3:GND, 4:CTRL, 5:SW, 6:SW, 7: N/C, 8: VIN




* This model is intended for feasibility study of application
* design.  It is expected that it will not accurately represent
* the device real performance.  However some important features
* of the device are modelled approximately.
* The model does not include effects of temperature or self-heating.
* Testing of prototype hardware and optimisation on the bench
* is always required before production build.


* NOTE:  set RELTOL=1E-5 for clean switching waveform

.subckt AL8806 1 2 3 4 5 6 7 8   

Rsh1 2 3 1u
Rsh2 5 6 1u

*                   
* Block 1: Vref Generator * input nodes 8 and 2, outputs 11 and 2
.param  VIL1=0.8  VOL1=0  VIH1=3.45 VOH1=2.5  ;high and low limits of input and output  
.param  MUH1=0.05  MUL1=0.1  ; high and low curve error
.param SL1={(VOH1-VOL1)/(VIH1-VIL1)}  ; gain slope
E11  11  2  value={min(max(VOL1+SL1*(V(8)-V(2)-VIL1+MUL1*(1-tanh((V(8)-V(2)-VIL1+MUL1)/MUL1))
+ -MUH1*(1+tanh((V(8)-V(2)-VIH1-MUH1)/MUH1))) ,VOL1),VOH1)}
R11        11 4  50k  




* Block 2: CTRL limiter  * input nodes  4 and 2, outputs 21 and 2
.param  VIL2=0  VOL2=0  VIH2=2.5 VOH2=2.5  ;high and low limits of input and output  
.param  MUH2=0.001  MUL2=0.2  ; high and low curve error
.param SL2={(VOH2-VOL2)/(VIH2-VIL2)}  ; gain slope
E21  21  2  value={min(max(VOL2+SL2*(V(4)-V(2)-VIL2+MUL2*(1-tanh((V(4)-V(2)-VIL2+MUL2)/MUL2))
+ -MUH2*(1+tanh((V(4)-V(2)-VIH2-MUH2)/MUH2))) ,VOL2),VOH2)}




* Block 3: CTRL lockout with hysteresis *
R32        21  31  1000  
I31        21  31  100uA  
R31        31  32  1k
C31        32   2  10p
S31        31  21 32  2  S_31          
.model   S_31   VSWITCH Roff=10e6 Ron=1 Voff=505mV Von=495mV




S32        53  2 32 2  S_32 
.MODEL   S_32   VSWITCH Roff=10e6 Ron=100 Voff=501mV Von=499mV

* Block 4: UVLO with hysteresis*
E41       41 2  value={0.5*(1+tanh(1e3*(V(43)-V(8)+5.7)))}
R41       41 42 1k
C41       42 2  20p
R42       42 43 800k
R43       43 2  200k
S41       53 2 42 2   S_41 
.MODEL   S_41   VSWITCH Roff=1e6 Ron=100 Voff=0.4 Von=0.6




* Block 5: Current Sense Comparator*
G51        2 51 8 1 1m  ;  input amplifier
C51        2  1  3p      ;  input capacitance



* SET input current; asymptote input nodes 1 and 2, outputs 1 and 2
.param  xx5=5  yy5=16u  nn5=32;input corner, output limit, asymptote power
.param  aa5={xx5**nn5}
G52  1  2  value={yy5*(V(1)-V(2))/(aa5+(V(1)-V(2))**nn5)**(1/nn5)}
R51        2  52  10.417k  
R52        52 51  20.833k  
S51        52 2 66 2   S_51 
.MODEL     S_51  VSWITCH Roff=10e6 Ron=1.0 Voff=2.5V Von=2.8V
C52        51  2 0.5p
G53        53  2 value={0.01*tanh(100*(V(51)-V(21)))} ;comparator
C54        53  2 1f  
V51        54  2 700mV
D51        54 53 Dclamp
V52        55  2 8V
D52        53 55 Dclamp




* Block 6: Comp Delay and gate driver*
R64        53 63  10Meg    ;  input filter with C61 
C61        63  2  0.0015p   ;  
G61        61 65  Value={0.1*(max(V(63)-V(65)-0.5,0))**2*(V(61)-V(65))}
G62        65 62  Value={0.1*(max(V(65)-V(63)-0.5,0))**2*(V(65)-V(62))}
R66        61 65 10meg
R67        65 62 10meg
R61         8 61  1.2
R62        62  2  1.2
R63        65  2  10k

R65        65 64  1        ;  driver current sense
R68        66 64  49        ;  output resistance-1 ohm
C62         2 66  25f  




* Block 7: Output NMOS *
S71        72 71 66 71 S_71 
.MODEL     S_71 VSWITCH Roff=10e6 Ron=0.25 Voff=2.5V Von=2.8V
R72        72  5  50m     ; on resistance = R72 + R73 + Ron(S71) 
R73        71  2  50m
C73        72 71  100p
C71        66 71  40p
C72        72 66  15p
 
* Block 8: Supply Current *
G81         8  2 Value={(300u*(V(11)-V(2))/VOH1)+0.6u*(V(8)-V(2))}

* Block 9: Protection diodes
D91   2  5  D_1     ;SW
D92   2  8  D_1     ;VIN
D93   2  4  D_2     ;CTRL
D94   8  1  D_2    ;SET forward
D95   1  8  D_2    ;SET reverse

.model Dclamp  D Is=2.682n N=1.836 Rs=.5664 Ikf=44.17m Cjo=4p M=.3333 Vj=.5
.model D_1  D  IS=1e-14 BV=40
.model D_2  D  IS=1e-14 BV=6.5

.ends AL8805


*  =====================================================================
*
*                (c)  2013 Diodes Incorporated
*
*   The copyright in these models  and  the designs embodied belong
*   to Diodes Incorporated (" Diodes ").  They  are  supplied
*   free of charge by Diodes for the purpose of research and design
*   and may be used or copied intact  (including this notice)  for
*   that purpose only.  All other rights are reserved.  The models
*   are believed accurate but no condition or warranty as to their
*   merchantability or fitness for purpose is given and no liability
*   in respect of any use is accepted by Diodes Incorporated, its distributors
*   or agents.
*
*   Diodes Incorporated, 4949 Hedgcoxe Road, Suite 200, Plano, TX 75024, USA

=========================================================================================================

[AL8807]
*TITLE=AL8807 MACROMODEL
*ORIGIN=DZSL_AG_GS
*SIMULATOR=DIODES, SIMETRIX and PSPICE
*DATE=17th Jan 2013
*VERSION=1
*PIN_ORDER   1:SW, 2:GND, 3:CTRL, 4:SET, 5:VIN
*
* This model is intended for feasibility study of application
* design.  It is expected that it will not accurately represent
* the device real performance.  However some important features
* of the device are modelled approximately.
* The model does not include effects of temperature or self-heating.
* Testing of prototype hardware and optimisation on the bench
* is always required before production build.
*
* NOTE:  set RELTOL=1E-5 for clean switching waveform
*
.subckt AL8807   10   26   13  20   18  
* Connections    SW  GND  CTRL SET  VIN
* pins   SOT23   1   2    3    4    5
*                   
* Block 1: Vref Generator *  input is V(18)-V(26)
*required input parameters
.param  VIL1=0.7  VIH1=3.5  VOL1=0 VOH1=2.5  ; low and high limits of input and output  
.param  MUL1=0.1  MUH1=0.05  ; low and high curve error
*calculations
.param KL1={MUL1*tanh((VIH1-VIL1)/MUL1)}  KH1={MUH1*tanh((VIH1-VIL1)/MUH1)}
.param SL1={(VOH1-VOL1)/(VIH1-VIL1-KL1-KH1)}  ;gain slope
E11 14 26 value={min(max(VOL1+SL1*(V(18)-V(26)-VIL1-MUL1*tanh((V(18)-V(26)-VIL1)/MUL1)
+ -MUH1*tanh((V(18)-V(26)-VIH1)/MUH1)-KH1),VOL1),VOH1)}
R4         14 13  50k  

* Block 2: CTRL limiter
* tanh limiter, type 1, input nodes 13 and 26, outputs 12 and 26
.param  VIH2=2.5  VOH2=2.5  ;high limits of input and output  
.param  MU2=0.001  ; curve error
.param SL2={VOH2/VIH2}  ;gain slope
E21  12  26  value={SL2*min(V(13)-V(26)-MU2*(1+tanh((V(13)-V(26)-VIH2-MU2)/MU2)),VOH2)}

* Block 3: CTRL lockout with hysteresis *
R8         12 adj_lockout  1000  
I1         12 adj_lockout 100uA  
R31        adj_lockout 31  1k
C31        31 26 10p
S4   adj_lockout 12 31 26  S_4          
.model   S_4   VSWITCH Roff=10e6 Ron=1 Voff=505mV Von=495mV

S5       21 26 31 26  S_5 
.MODEL  S_5   VSWITCH Roff=10e6 Ron=100 Voff=501mV Von=499mV

* Block 4: UVLO with hysteresis*
E41       41 26 value={0.5*(1+tanh(1e3*(V(43)-V(18)+5.7)))}
R41       41 42 1k
C41       42 26 20p
R42       42 43 800k
R43       43 26 200k
S41       21 26 42 26   S_41 
.MODEL   S_41   VSWITCH Roff=1e6 Ron=100 Voff=0.4 Von=0.6

* Block 5: Current Sense Comparator*
G51        26 8 18 20 1m  ;  input amplifier
C51         26 20  3p      ;  input capacitance
* SET input current; asymptote input nodes 20 and 26, outputs 20 and 26
.param  xx5=5  yy5=16u  nn5=32;input corner, output limit, asymptote power
.param  aa5={xx5**nn5}
G52  20  26  value={yy5*(V(20)-V(26))/(aa5+(V(20)-V(26))**nn5)**(1/nn5)}
R51        26 9  10.417k  
R52        9 8  20.833k  
S51        9 26 23 26   S_51 
.MODEL     S_51  VSWITCH Roff=10e6 Ron=1.0 Voff=2.5V Von=2.8V
C52        8  26 0.5p
G53        21 26 value={0.01*tanh(100*(V(8)-V(12)))} ;comparator
C54        21 26 1f  
V3         24 26 700mV
D8         24 21 Dclamp
V4         22 26 8V
D9         21 22 Dclamp

* Block 6: Comp Delay and gate driver*
R64        21 63  10Meg    ;  input filter with C61 
C61        63 26  0.0015p   ;  
G4         61 25  Value={0.1*(max(V(63)-V(25)-0.5,0))**2*(V(61)-V(25))}
G5         25 62  Value={0.1*(max(V(25)-V(63)-0.5,0))**2*(V(25)-V(62))}
R66        61 25 10meg
R67        25 62 10meg
R61        18 61  1.2
R62        62 26  1.2
R63        25 26  10k

R65        25 64  1        ;  driver current sense
R13        23 64  330        ;  output resistance-1 ohm
C6         26 23  25f  

* Block 7: Output NMOS *
S8       11 71 23 71 S_8 
.MODEL     S_8 VSWITCH Roff=10e6 Ron=0.25 Voff=2.5V Von=2.8V
R72        11 10  50m     ; on resistance = R72 + R73 + Ron(S8) 
R73        71 26  50m
C5         11 71  100p
C71        23 71  40p
C72        11 23  15p
 
* Block 8: Supply Current *
G81         18 26 Value={(300u*(V(14)-V(26))/VOH1)+0.6u*(V(18)-V(26))}

* Block 9: Protection diodes
D91  26 10 D_1     ;SW
D92  26 18 D_1     ;VIN
D93  26 13 D_2     ;CTRL
D94  18 20  D_2    ;SET forward
D95  20 18  D_2    ;SET reverse

.model Dclamp  D Is=2.682n N=1.836 Rs=.5664 Ikf=44.17m Cjo=4p M=.3333 Vj=.5
.model D_1  D  IS=1e-14 BV=40
.model D_2  D  IS=1e-14 BV=6.5

.ends AL8807
*  =====================================================================
*
*                (c)  2013 Diodes Incorporated
*
*   The copyright in these models  and  the designs embodied belong
*   to Diodes Incorporated (" Diodes ").  They  are  supplied
*   free of charge by Diodes for the purpose of research and design
*   and may be used or copied intact  (including this notice)  for
*   that purpose only.  All other rights are reserved.  The models
*   are believed accurate but no condition or warranty as to their
*   merchantability or fitness for purpose is given and no liability
*   in respect of any use is accepted by Diodes Incorporated, its distributors
*   or agents.
*
*   Diodes Incorporated, 4949 Hedgcoxe Road, Suite 200, Plano, TX 75024, USA
*

=========================================================================================================

[AL8807A]
*TITLE=AL8807A MACROMODEL
*ORIGIN=DZSL_AG_GS
*SIMULATOR=DIODES, SIMETRIX and PSPICE
*DATE=1st Feb 2013
*VERSION=1
*PIN_ORDER   1:SW, 2:GND, 3:CTRL, 4:SET, 5:VIN
*
* This model is intended for feasibility study of application
* design.  It is expected that it will not accurately represent
* the device real performance.  However some important features
* of the device are modelled approximately.
* The model does not include effects of temperature or self-heating.
* Testing of prototype hardware and optimisation on the bench
* is always required before production build.
*
* NOTE:  set RELTOL=1E-5 for clean switching waveform
*
.subckt AL8807A  1   2    3    4     5  
* Connections    SW  GND  CTRL SET  VIN
* pins   SOT23   1   2    3    4     5
*                   
* Block 1: Vref Generator * input nodes 5 and 2, outputs 11 and 2
.param  VIL1=0.8  VOL1=0  VIH1=3.45 VOH1=2.5  ;high and low limits of input and output  
.param  MUH1=0.05  MUL1=0.1  ; high and low curve error
.param SL1={(VOH1-VOL1)/(VIH1-VIL1)}  ; gain slope
E11  11  2  value={min(max(VOL1+SL1*(V(5)-V(2)-VIL1+MUL1*(1-tanh((V(5)-V(2)-VIL1+MUL1)/MUL1))
+ -MUH1*(1+tanh((V(5)-V(2)-VIH1-MUH1)/MUH1))) ,VOL1),VOH1)}
R11        11 3  50k  

* Block 2: CTRL limiter  * input nodes  3 and 2, outputs 21 and 2
.param  VIL2=0  VOL2=0  VIH2=2.5 VOH2=2.5  ;high and low limits of input and output  
.param  MUH2=0.001  MUL2=0.2  ; high and low curve error
.param SL2={(VOH2-VOL2)/(VIH2-VIL2)}  ; gain slope
E21  21  2  value={min(max(VOL2+SL2*(V(3)-V(2)-VIL2+MUL2*(1-tanh((V(3)-V(2)-VIL2+MUL2)/MUL2))
+ -MUH2*(1+tanh((V(3)-V(2)-VIH2-MUH2)/MUH2))) ,VOL2),VOH2)}

* Block 3: CTRL lockout with hysteresis *  not used

* Block 4: UVLO with hysteresis*
E41       41 2  value={0.5*(1+tanh(1e3*(V(43)-V(5)+5.7)))}
R41       41 42 1k
C41       42 2  20p
R42       42 43 800k
R43       43 2  200k
S41       53 2 42 2   S_41 
.MODEL   S_41   VSWITCH Roff=1e6 Ron=100 Voff=0.4 Von=0.6

* Block 5: Current Sense Comparator*
G51        2 51 5 4 1m  ;  input amplifier
C51        2  4  3p      ;  input capacitance
* SET input current; asymptote input nodes 4 and 2, outputs 4 and 2
.param  xx5=5  yy5=16u  nn5=32;input corner, output limit, asymptote power
.param  aa5={xx5**nn5}
G52  4  2  value={yy5*(V(4)-V(2))/(aa5+(V(4)-V(2))**nn5)**(1/nn5)}
R51        2  52  10.417k  
R52        52 51  20.833k  
S51        52 2 66 2   S_51 
.MODEL     S_51  VSWITCH Roff=10e6 Ron=1.0 Voff=2.5V Von=2.8V
C52        51  2 0.5p
G53        53  2 value={0.01*tanh(100*(V(51)-V(21)))} ;comparator
C54        53  2 1f  
V51        54  2 700mV
D51        54 53 Dclamp
V52        55  2 8V
D52        53 55 Dclamp

* Block 6: Comp Delay and gate driver*
R64        53 63  10Meg    ;  input filter with C61 
C61        63  2  0.0015p   ;  
G61        61 65  Value={0.1*(max(V(63)-V(65)-0.5,0))**2*(V(61)-V(65))}
G62        65 62  Value={0.1*(max(V(65)-V(63)-0.5,0))**2*(V(65)-V(62))}
R66        61 65 10meg
R67        65 62 10meg
R61         5 61  1.2
R62        62  2  1.2
R63        65  2  10k

R65        65 64  1        ;  driver current sense
R68        66 64  330        ;  output resistance-1 ohm
C62         2 66  25f  

* Block 7: Output NMOS *
S71        72 71 66 71 S_71 
.MODEL     S_71 VSWITCH Roff=10e6 Ron=0.25 Voff=2.5V Von=2.8V
R72        72  1  50m     ; on resistance = R72 + R73 + Ron(S71) 
R73        71  2  50m
C73        72 71  100p
C71        66 71  40p
C72        72 66  15p
 
* Block 8: Supply Current *
G81         5  2 Value={(300u*(V(11)-V(2))/VOH1)+0.6u*(V(5)-V(2))}

* Block 9: Protection diodes
D91   2  1  D_1     ;SW
D92   2  5  D_1     ;VIN
D93   2  3  D_2     ;CTRL
D94   5  4  D_2    ;SET forward
D95   4  5  D_2    ;SET reverse

.model Dclamp  D Is=2.682n N=1.836 Rs=.5664 Ikf=44.17m Cjo=4p M=.3333 Vj=.5
.model D_1  D  IS=1e-14 BV=40
.model D_2  D  IS=1e-14 BV=6.5

.ends AL8807A
*  =====================================================================
*
*                (c)  2013 Diodes Incorporated
*
*   The copyright in these models  and  the designs embodied belong
*   to Diodes Incorporated (" Diodes ").  They  are  supplied
*   free of charge by Diodes for the purpose of research and design
*   and may be used or copied intact  (including this notice)  for
*   that purpose only.  All other rights are reserved.  The models
*   are believed accurate but no condition or warranty as to their
*   merchantability or fitness for purpose is given and no liability
*   in respect of any use is accepted by Diodes Incorporated, its distributors
*   or agents.
*
*   Diodes Incorporated, 4949 Hedgcoxe Road, Suite 200, Plano, TX 75024, USA

=========================================================================================================

[ZXLD1371Q]
**$ENCRYPTED_LIB
**$INTERFACE
*$
.SUBCKT ZXLD1371_PSPICE GATE ADJ REF GI ISIM VIN PWM SGND STATUS
+ VAUX SHP PGND FLAG TADJ NC1 NC2
$CDNENCSTART
eee8c5c7a2bc4b01f045f303678664e7916da0bae22e8cb0bba041dd67c69ce448ea70148a9ac1670c8926c1ac5057c8ccfcd77bf87ca9dc6004e157994bc9bf
394197bedeb77a716f52d5ca6e23dacf5f77689faa8a663fbc39eed45909606b00d3e0b087c73744c9f6c53b093b66727f70dd368fa5728963912ffecb55b6d8
04f5acd939422ec02fbfcc2b872ff9461d45c8eb53f8a29c749d13634498f34bc9322890ded6647b56be7388bb4ba8853543ca07c959008c54d5980f69aa986e
5316fc9fe4e05facf588045849eceb90e6626fc5bfd508b16334dff5a8e8736c568101f0eaa845cf3900116365b28771ef6559fc277d4b8d420df9a063adc751
ddf70eae3b592905ac73e51ea6171029b9eabc28f38b49586ae3f463f161071fbfd58a4b12fceb5d00d3e0b087c73744c9f6c53b093b6672f1b3224347ba154c
e0bee0f3fadd67246f52d5ca6e23dacf6ae3f463f161071f2da085ac1302fd51478a87bc5b8e6cf9691018eed3b49c363b7ed36af94fd8d0e1734198eb2d5d30
b0eb42ca922cce592fbfcc2b872ff94683aceacad20792c7749d13634498f34bc9322890ded6647b05ed049cabd059d7af34d43db6b6477cbc2933d56eb6c3c7
af399d32d282acb6184dc1300cea2a1333803012812e35a27bbf3a0197757d1a6ff4dc351624cea4964c77ba3214ca8ca8e32446a12da7d50bd780059ff414f8
8f10d309634521e5107192c97b3918a9c76dbc50c48fbbe7d0fb8f8ac09713ec478a87bc5b8e6cf9691018eed3b49c363b7ed36af94fd8d0e1734198eb2d5d30
717cdf892ff6b6ff26c880f485e2ca3492ebc16da04e46be7de72266a8957c9762d766f77596a54bf588045849eceb90e6626fc5bfd508b1d776614f460f1ceb
c6ada2f6665016dfac73e51ea6171029df13108db75bcac0ec8e4432708a2f10184dc1300cea2a1333803012812e35a27bbf3a0197757d1a10e6517c4d5c1c74
605b35877b85eee721377c54379bab5d239bdbe658d21d00044c5edbf77fecb6b03db27a4b23eea8387ddbd4b3ec85993c3ebf3aa31b5c39eb81723a9021625e
2ca24c18cb27721d153e73797dd8d866a0c7a89b875d76a7b0718e2bf61f10a7ff08e5ba163dd43c18663872d39f019dc350cbfaf73a0398017aa9b2faa6789e
dff667fce1627b8f36b24b5db985d2d3ce28bcb138548355116fb2ef8f954fae37533a275f2c6d0eb5f1c17ee7956303f716375b8c71d2ca2a84cfa93f6086c1
00575617ddd170c91068d23fb1a14817be00a2a37fc213af7f6778186477bbeb7826d86a24e0c932558ae2e6b93c4040672f752658a09f218d5c737683766352
a147194f3a3bf6c0710f626c2faf14a6f716375b8c71d2ca7447dc705bd2b9a632f1f96ca76f178f24a8b58514063cc5773cfc1bd26698df56a4048f1e4ff032
f29d7d98ef0d8ffac4a17b59ca91381df45310c19b6b8ee57017057a427e6410b540685422c11ef9fceb72c6584bab533cf4807158e4909c9d6bedf9d0034ac8
605b35877b85eee721377c54379bab5dcd9f9b0fe66d8ad1b5b85bc0d31aaef583bc4964f97c0bfb1e00d217525559aedad4bb70f534f24c16944157eaac9744
a2faec34d68cdd2af13ee61e90b65ef18ce113ea01486d742446811279bcfdca7e4eff80f489c700d80f09fa99fcdc9f31ff87f86ef7d8025ac6c13a39cffff7
64a2af3d08b8c3fbe71f71e187584171b74feb6ff8076c794d22c850cafe6d88de6b5e23e32a61b6bd761caf95d962dd61e0a440bad77e3138b871d3d163c946
273ef0efd9cac693c295486b1819e032f45310c19b6b8ee57017057a427e6410b540685422c11ef9f78e3835f7dcf08337b2d2e15ad7f2468671325e6f4b6b25
6422a9133f078ed399298f7cd44d061d706b807646b803717017057a427e6410b540685422c11ef93063c3bb852fe4d2fe14e8ed893f87905d43534984e52420
2579318862ec410f5268f2b9f86a0eca858728efae680901a23477990359ea58c64639ef522b82dbe7eefa795927f22cb124fbdd29716cfbacdab751cbf202c2
f29d7d98ef0d8ffab390595cafb1ab9635b229f6ed36cf79efe06c4f9b313c77dbc3554236bba2721c0530388a0d45f3f64c4168815a7f58b9ec58759fbaecf9
44e335dab141105980b07acdfe1a6318184dc1300cea2a1333803012812e35a27bbf3a0197757d1a6ff4dc351624cea4964c77ba3214ca8c9d716709579b3adb
ecc3810338d4a815ec85f36e56eb5e07f45310c19b6b8ee57017057a427e6410ce3e74f18b11c63edea2f49989a93410184dc1300cea2a136b276ab17ad27652
605b35877b85eee721377c54379bab5deb87848776396383b5b85bc0d31aaef5c78955b2f9a9a77ca7acfc5f2315b7c44c49b18e65b2012511d006434ff70a7c
2579318862ec410f5268f2b9f86a0eca858728efae6809018683b141dcb3272b7ae82484816be00fb5f1c17ee7956303f716375b8c71d2ca2a84cfa93f6086c1
605b35877b85eee721377c54379bab5dcc0121b5e20e20767e2db9a6f9c8f569a3453ba7982d296def7dd173ebafc8a5efe06c4f9b313c777a5f555c7f36bc06
55f7ebc1844b945cc9f6c53b093b66727f70dd368fa57289ba6003231ac0493b63635097c559ebe1dfa360badf382ef60c1cb2f0da1ca881fcd6be7a2000af83
dff667fce1627b8f36b24b5db985d2d3ca919d09a48d33e1b19c9f724420bb21024a2e9187f5d113e73070a45f1d549ca0c7a89b875d76a7668ff86ff0a77892
273ef0efd9cac693699b83783a230135f45310c19b6b8ee57017057a427e6410b15a98c80c85bdd8834492d15d72f82c760b7acfc94bff32bd6e0240e530e0d3
00575617ddd170c977da2069621c0870be00a2a37fc213af7f6778186477bbeb9b7fc6a7cb92def0ea7d4f030068283373d9dc50e4e85c45abb485c8ac7a39ac
00575617ddd170c93a6d68c1db088061be00a2a37fc213af7f6778186477bbebe3abc915180b0fc75a90baf5cf07376f49bcb2e9b7241eb49d6bedf9d0034ac8
5dde899679de79ab1b335ff66691221544e30ee031766bfac90827f4e9cf024b821d3ad19a17fc5962d766f77596a54bf588045849eceb90e1051d295f61418a
317f1bcb1e5ac862ac73e51ea61710293497978ed7181356a099cec494ae8989f588045849eceb90e6626fc5bfd508b16334dff5a8e8736c4fe6e5c7e47db8f7
7b300a002f2d8ddd218ee09e41104590e28b1eaee7cc8472753c64a4a951701a9238c7ba345aa441c9f6c53b093b66727f70dd368fa5728963912ffecb55b6d8
b9ed3e04d2a793293fe9a17f99afa94395e943ccd8868a6ae93c8c7b51168b14478a87bc5b8e6cf9691018eed3b49c363b7ed36af94fd8d0e1734198eb2d5d30
f1b71296a16c9ee01b335ff66691221512ea7294e684b839f3c4e72344563a843b250a80e39602b5042f0c0c78bb0deb184dc1300cea2a136b276ab17ad27652
23ee73d6065f3641d811871cc3622e4a019b8717068e3d443f21a179b2be58baef1d7357d3c4e2f3644126c9831a96bdb74feb6ff8076c7955ab08ba49ed7650
2c7f46f84591bc12e2ad7048ed9193b1523b2604a68e8ef9fdf5f62657ccba9b2dc8ed9cc96ddaab24fdfd9bb2e10b07a0c7a89b875d76a7668ff86ff0a77892
857620ce20ef86cb26c880f485e2ca3415329f00962841785a4c41089daca73e787784bc593e995d23b782b3d6a37df1e7eefa795927f22c7d5ecccba7838ea4
8807bf206d8a4bf4da90698ba1ee0b1344e30ee031766bfa2eb33e7d0c66effdc4263047304fc101abbf8da1f96d2fb2492a61aa0d75bc53f41f2ac565d1fd58
d36d26370afc449b1fc67ec68dbc352ea826917222a64646f588045849eceb90e6626fc5bfd508b16334dff5a8e8736c568101f0eaa845cf8ea88232772e9185
f197831ab997cb511b335ff666912215962084b4cabaea50c0996ee0a6b29beec9f6c53b093b66727f70dd368fa57289ba6003231ac0493b0801900bb0d2ae74
71dbbe87e53e082f599bf13f0371d5b4fda72f5818c81bf49e91cddcc46315d65ed2fe27f6c34366691018eed3b49c363b7ed36af94fd8d0e1734198eb2d5d30
e8686e014b15db761b335ff6669122159c3be3c559456c162f7290d7f191b8ae23b782b3d6a37df1e7eefa795927f22cb124fbdd29716cfbacdab751cbf202c2
c858d814c56a2bcc769be4ce041f188824046311950bf77c4ba887e5e5417704abbf8da1f96d2fb2492a61aa0d75bc5381d5360d0e44f50c5d43534984e52420
48a94d11d238250f3e182210b1d9c2bc0dc94f7d1fc62090e213edf528fee6b2300b06d6b098e56a7a72378188149f25691018eed3b49c36df42c068afe98c8a
9e5134779ded2111f45310c19b6b8ee512d693d8957db81b478a87bc5b8e6cf9691018eed3b49c363b7ed36af94fd8d0b677be974a8015938337dc0ba5af8d26
e72ff3e7fc7190cdda90698ba1ee0b136ace929a007d96c44ba887e5e5417704abbf8da1f96d2fb2492a61aa0d75bc5363ed35b1266e36425d43534984e52420
f58ffbed3f217484706b807646b80371895d05bc59882af8f1b8d790cb2e41c9faca85d0862a74fbfc528ba36843793b0fa984f27f78bccf7d4d396707233756
4cf294edf7e0961f9b08e82f0908ea3a184dc1300cea2a1333803012812e35a27bbf3a0197757d1a6ff4dc351624cea4964c77ba3214ca8c9d716709579b3adb
4a2e92973c32fd12551cc969959c56b127056d71145457d5fa52237fdde26b44691018eed3b49c363b7ed36af94fd8d0b677be974a8015938337dc0ba5af8d26
6f23563494b56938706b807646b8037132122f815f7bf45c8e927edd2d745704be7b72e16c425c0c78974fa8c5970bd3128fa59261fa1a65f44496155f03ed4f
2a76c18f665e8c270dbeca54fe4a6fa68c81757d6b17a69f9f7df7e1d853713719fc61b223c11fd91b03c3c8b1210eb1c9f6c53b093b6672f1b3224347ba154c
1fcbc249eb94715326c880f485e2ca340639c092da8a0ddddc87d8f5e8e39da462d766f77596a54bf588045849eceb90e6626fc5bfd508b1d776614f460f1ceb
52ba738fba12eb4a1b335ff6669122152ca8047c7957b30eae1e05fddac936fca0c7a89b875d76a7b0718e2bf61f10a7ff08e5ba163dd43c2a9ba28f5e45e265
f80a395284a571112fbfcc2b872ff94677ddc6f43cf11494749d13634498f34bc9322890ded6647b913601db0b53db113543ca07c959008c6f43b879c715b844
0db7e72d6e369fe1691018eed3b49c363b7ed36af94fd8d0b677be974a801593db8480f51879a1db1a4300bf221b913af248f4846b4e8d26c2c478990dc28ced
340902c1590d2246cbf62b4d3dcda7184aed8b565a5e13815c9e084edd7d2158f588045849eceb90e6626fc5bfd508b16334dff5a8e8736c4fe6e5c7e47db8f7
09a2b761cdd63986d58d21bd311ea6ba2716e67bb37c739248a22ba84875dab5e3e5946109ab96442be4d4793f1a270b2bdc2471723c531b74fb7cf2e7c9f235
32cd76a2a36328a99aa9a9248f306fbf65cef533b34422d3d4b905c33e8bae272576175eff3c1c5ab5f1c17ee7956303f716375b8c71d2ca2a84cfa93f6086c1
09a2b761cdd63986d58d21bd311ea6ba9f50c449b546348c48a22ba84875dab5e3e5946109ab9644d2f28a5c4bc363c766eaeb9fc4cc8ae125657ebd83de6526
14d9ecaf67b8c94ac3322ae60df680c2b6cb8b57da5c237d3a9cdabdca00b010bdc21b64c436efa17cb5783fbf51f543f588045849eceb90e1051d295f61418a
95216fad1e8e9329e73070a45f1d549ca0c7a89b875d76a7b0718e2bf61f10a7ff08e5ba163dd43c18663872d39f019dc350cbfaf73a0398017aa9b2faa6789e
09a2b761cdd63986d58d21bd311ea6ba0fa4ea595ab98ca05b6db4b5a524f0cfc24c449b5177ec438492e52ca9907137d45987aa526f7ebcaefc2cbd1904f036
8ae1ad83327b81dec5446a5920f1d318aa11a96fd77a05cab74feb6ff8076c794d22c850cafe6d88de6b5e23e32a61b6bd761caf95d962ddf56ff53d81d427bd
21cb6a29d4b0b30d21ba0642d7d35b3451ffdabf74bf3f4cf588045849eceb90e6626fc5bfd508b16334dff5a8e8736c568101f0eaa845cf8ea88232772e9185
4cb05053dd12b0f521ba0642d7d35b340c9f3156902d2775f588045849eceb90e6626fc5bfd508b16334dff5a8e8736c568101f0eaa845cf8ea88232772e9185
09a2b761cdd639868eee1ee26f081f21957037c396f796b5025af90ddce02ede557891869bc2e855803fff23a4e2a281ce5ec34e6f8ad1ca20e65e1717a0b297
c35972971bda6cbfc2356fa0b0fe3ea9f716375b8c71d2ca7447dc705bd2b9a632f1f96ca76f178f24a8b58514063cc5773cfc1bd26698df56a4048f1e4ff032
09a2b761cdd639868eee1ee26f081f215fdb5cf0a0117bb6025af90ddce02ede557891869bc2e8553a1a9b7f4a1b1ea3ce5ec34e6f8ad1ca7f4fa8c50191d90c
021132bb3fd82585f588045849eceb90e6626fc5bfd508b16334dff5a8e8736c568101f0eaa845cf3900116365b28771ef6559fc277d4b8d420df9a063adc751
09a2b761cdd63986809e63d19e808c40706b807646b803719f37e7a110c0d30f8492e52ca9907137691018eed3b49c363b7ed36af94fd8d0e1734198eb2d5d30
05b5f1398a5d6f6906f29896cb00af16e3e5946109ab96448a6d0d3edb9c296d3b698759e0f6968715cde71e5a76569bc2356fa0b0fe3ea96004e157994bc9bf
09a2b761cdd6398671d94cdb4243f500706b807646b80371aa3deeb51b78df108ae1ad83327b81ded2bbaa26aad6c6147f96a94c9a957a0c5d43534984e52420
05b5f1398a5d6f6938e5202811de8b229aa9a9248f306fbfa019b886ca2946c45ec35ee69717b5a5974781ad152f7972184dc1300cea2a136b276ab17ad27652
5c2e262d493b312ff73e0c5051b95e15e503df2c2a48623568d4c1b330b1e1fa62d766f77596a54bf588045849eceb90e6626fc5bfd508b1d776614f460f1ceb
b090b65fdd16a27f1b335ff66691221511253b9116fca4b5cc818c2e64e2441d3c991a04052eba44644126c9831a96bdb74feb6ff8076c7955ab08ba49ed7650
39b56735282d89731b335ff6669122156b74fd3a75af1db9b3eff0053075038b82b03c4529a3797d478a87bc5b8e6cf9691018eed3b49c36df42c068afe98c8a
e513bba6d3228b87ac73e51ea6171029b9a376387dcea33ea1c0f782a9dccaf9c9f6c53b093b66727f70dd368fa57289ba6003231ac0493b0801900bb0d2ae74
b0fb847a3b385fda1b335ff66691221528bb17bf747c349a7bf91ca1a5006a10f588045849eceb90e6626fc5bfd508b16334dff5a8e8736c4fe6e5c7e47db8f7