=========================================================================================================

[ZXT849K]
*
*DIODES_INC_SPICE_MODEL
*ORIGIN=DZSL_DPG_GM
*SIMULATOR=PSPICE
*DATE=23FEB2011
*VERSION=1
*
.MODEL ZXT849K NPN IS =5.8591E-13 NF =0.9919 BF =230 IKF=18 VAF=90
+ ISE=2.0067E-13 NE =1.4 NR =0.9908 BR =180 IKR=6.8 
+ VAR=20 ISC=5.3E-13 NC =1.46 RB =0.023 RE =0.0223 
+ RC =0.015 CJC=200E-12 MJC=0.3006 VJC=0.3532 
+ CJE=1.21E-9 TF =1.07E-9 TR =9.3E-9
*
*$

=========================================================================================================

[ZXTN2007G]
*ZETEX ZXTN2007G Spice Model v1.0 Last revision 24/03/06
    *
    .MODEL ZXTN2007G  NPN IS=1.5E-12 NF=1 BF=210 IKF=8 VAF=100 ISE=7.5E-13 
    +NE=1.39 NR=1 BR=120 IKR=5 VAR=25 ISC=9E-13 NC=1.37 RC=0.005 TRC1=3e-3 
    +RB=0.3 TRB1=6e-3 RE=0.024 TRE1=3e-3 CJC=110E-12 MJC=0.44 VJC=0.65 CJE=650E-12
    +TF=0.8E-9 TR=9E-9 XTB=1.4 
    *
    *$
    *

=========================================================================================================

[ZXTN2007Z]
*ZETEX ZXTN2007Z Spice Model v1.0 Last revision 24/03/06
    *
    .MODEL ZXTN2007Z  NPN IS=1.5E-12 NF=1 BF=210 IKF=8 VAF=100 ISE=7.5E-13 
    +NE=1.39 NR=1 BR=120 IKR=5 VAR=25 ISC=9E-13 NC=1.37 RC=0.005 TRC1=3e-3 
    +RB=0.3 TRB1=6e-3 RE=0.024 TRE1=3e-3 CJC=110E-12 MJC=0.44 VJC=0.65 CJE=650E-12
    +TF=0.8E-9 TR=9E-9 XTB=1.4 
    *
    *$
    *

=========================================================================================================

[ZTX849]
*ZETEX ZTX849 Spice Model v1.0  Last Revised 20/1/93
    *
    .MODEL ZTX849 NPN IS =5.8591E-13 NF =0.9919 BF =230 IKF=18 VAF=90
    +             ISE=2.0067E-13 NE =1.4 NR =0.9908 BR =180 IKR=6.8 
    +             VAR=20 ISC=5.3E-13 NC =1.46 RB =0.023 RE =0.0223 
    +             RC =0.015 CJC=200E-12 MJC=0.3006 VJC=0.3532 
    +             CJE=1.21E-9 TF =1.07E-9 TR =9.3E-9
    *
    *$
    *

=========================================================================================================

[2DD2679]
*
*DIODES_INC_SPICE_MODEL
*ORIGIN=DZSL_DPG
*SIMULATOR=PSPICE
*DATE=09/01/2009
*VERSION=1
*
.MODEL 2DD2679 NPN IS=5.1E-13 BF=480 NF=1 VAF=99 IKF=3.3 ISE=1.2E-13
+ NE=1.49 BR=65 NR=1 VAR=24 IKR=1 ISC=1.1E-13 NC=1.31 RE=0.0115 RB=0.15 RC=0.012
+ CJE=192E-12 VJE=0.75 MJE=0.38 CJC=35E-12 VJC=0.47 MJC=0.34 TF=0.62E-9 TR=20E-9
+ RCO=1.9 GAMMA=1E-8 QUASIMOD=1 XTB=1.35 TRE1=0.005 TRB1=0.005 TRC1=0.005
*
*$

=========================================================================================================

[FZT489]
*ZETEX FZT489 Spice Model v1.0 Last Revised 11/11/04
    *
    .MODEL FZT489 NPN IS =1.04E-13  BF =195 IKF =1.9 VAF =160 
    +              ISE=1.83E-14 NE =1.35 NR =1.00 BR =140 IKR=0.5 
    +              VAR=30 ISC=6.00E-12 NC =1.5 RB =0.3 RE =0.065
    +              RC =0.11 CJC=25.37E-12 MJC=0.3281 VJC=0.464 
    +              CJE=122E-12 MJE=0.3412 VJE=0.7631 TF =0.86E-9 
    +              TR =12.5E-9
    *
    *$
    *

=========================================================================================================

[FMMT489]
*ZETEX FMMT489  Spice Model v1.0 Last Revised 13/10/93
    *
    .MODEL FMMT489 NPN IS =1.04E-13  BF =195 IKF =1.9 VAF =160 
    +              ISE=1.83E-14 NE =1.35 NR =1.00 BR =140 IKR=0.5 
    +              VAR=30 ISC=6.00E-12 NC =1.5 RB =0.3 RE =0.065
    +              RC =0.11 CJC=25.37E-12 MJC=0.3281 VJC=0.464 
    +              CJE=122E-12 MJE=0.3412 VJE=0.7631 TF =0.86E-9 
    +              TR =12.5E-9
    *
    *$
    *

=========================================================================================================

[FMMT449]
*ZETEX FMMT449 Spice Model v1.0  Last Revised 11/11/04
    *
    .MODEL FMMT449 NPN IS =1.04E-13  BF =195 IKF =1.9 VAF =160 
    +              ISE=1.83E-14 NE =1.35 NR =1.00 BR =140 IKR=0.5 
    +              VAR=30 ISC=6.00E-12 NC =1.5 RB =0.3 RE =0.065
    +              RC =0.11 CJC=25.37E-12 MJC=0.3281 VJC=0.464 
    +              CJE=122E-12 MJE=0.3412 VJE=0.7631 TF =0.86E-9 
    +              TR =12.5E-9
    *
    *$
    *

=========================================================================================================

[2DD1766Q]
*SRC=2DD1766Q;DI_2DD1766Q;BJTs NPN; Si;  32.0V  2.00A  250MHz    -
.MODEL DI_2DD1766Q  NPN (IS=6.65f NF=1.00 BF=201 VAF=102
+ IKF=2.97 ISE=13.0f NE=2.00 BR=4.00 NR=1.00
+ VAR=20.0 IKR=4.50 RE=68.7m RB=0.275 RC=27.5m
+ XTB=1.5 CJE=218p VJE=1.10 MJE=0.500 CJC=41.4p VJC=0.300
+ MJC=0.300 TF=538p TR=101n EG=1.12 )

=========================================================================================================

[2DD1664R]
*
*DIODES_INC_SPICE_MODEL 2DD1664R
*ORIGIN=DZSL_DPG_SU
*SIMULATOR=PSPICE
*DATE=14/07/2014
*VERSION=1


.MODEL DD1664R NPN IS=150E-15 NF=1 BF=224 
+ ISE=1E-15 NE=1.35 NR=1 BR=28 ISC=6E-14 IKF=5 NK=.52 VAF=30
+ NC=1.3 RB=0.5 RE=0.1 RC=0.134 QUASIMOD=1 RCO=1 GAMMA=50E-11 VO=10
+ CJC=36.5E-12 MJC=0.36 VJC=0.55 CJE=139.4E-12 MJE=0.36 VJE=0.7
+ TF=1.3E-9 TR=16E-6 TRC1=.004 TRB1=.004 TRE1=.004 XTB=1.2
*QUASIMOD=1 RCO=80 GAMMA=4E-7  IKR=0.7 VAR=64 
*$



*                (c)  2014 Diodes Inc
*
*   The copyright in these models  and  the designs embodied belong
*   to Diodes Incorporated (" Zetex ").  They  are  supplied
*   free of charge by Zetex for the purpose of research and design
*   and may be used or copied intact  (including this notice)  for
*   that purpose only.  All other rights are reserved.  The models
*   are believed accurate but no condition  or warranty  as to their
*   merchantability or fitness for purpose is given and no liability
*   in respect of any use is accepted by Diodes Incorporated, its distributors
*   or agents.
*
*   Diodes Zetex Semiconductors Ltd, Zetex Technology Park, Chadderton,
*   Oldham, United Kingdom, OL9 9LL
*

=========================================================================================================

[FZT1051A]
*ZETEX FZT1051A Spice Model v1.0 Last Revised 18/3/97
    *
    .MODEL FZT1051A  NPN IS=1.35E-12  NF=1.0  BF=600  IKF=5.0  VAF=120
    +               ISE=0.6E-13  NE=1.25  NR=1.0  BR=150  IKR=3  VAR=15
    +               ISC=1.0E-10  NC=1.7  RB=0.1  RE=0.023  RC=0.010 
    +               CJC=90.36E-12  CJE=547.5E-12  MJC=0.385  MJE=0.357
    +               VJC=0.5 VJE=0.741  TF=600E-12  TR=8E-9
    *
    *$
    *

=========================================================================================================

[ZXTN25040DZ]
*ZETEX ZXTN25040DZ Spice Model v1.0 Last revision 01/06/07
    *
    .MODEL ZXTN25040DZ NPN IS=5.1E-13 BF=480 NF=1 VAF=99 IKF=3.3 ISE=1.2E-13
    +NE=1.49 BR=65 NR=1 VAR=24 IKR=1 ISC=1.1E-13 NC=1.31 RE=0.0115 RB=0.15 RC=0.012
    +CJE=192E-12 VJE=0.75 MJE=0.38 CJC=35E-12 VJC=0.47 MJC=0.34 TF=0.62E-9 TR=20E-9
    +RCO=1.9 GAMMA=1E-8 QUASIMOD=1 XTB=1.35 TRE1=0.005 TRB1=0.005 TRC1=0.005
    *
    *$
    *

=========================================================================================================

[DSS4540X]
*
*DIODES_INC_SPICE_MODEL
*ORIGIN=DZSL_DPG
*SIMULATOR=PSPICE
*DATE=06/01/09
*VERSION=1
*
.MODEL DSS4540X NPN IS=1.35E-12 NF=1.0 BF=600 IKF=5.0 VAF=120
+ ISE=0.6E-13 NE=1.25 NR=1.0 BR=150 IKR=3 VAR=15
+ ISC=1.0E-10 NC=1.7 RB=0.1 RE=0.023 RC=0.010 
+ CJC=90.36E-12 CJE=547.5E-12 MJC=0.385 MJE=0.357
+ VJC=0.5 VJE=0.741 TF=600E-12 TR=8E-9
*
*$

=========================================================================================================

[ZTX1051A]
*ZETEX ZTX1051A Spice Model v1.0 Last Revised 16/12/94
    *
    .MODEL ZTX1051A  NPN IS=1.35E-12  NF=1.0  BF=600  IKF=5.0  VAF=120
    +               ISE=0.6E-13  NE=1.25  NR=1.0  BR=150  IKR=3  VAR=15
    +               ISC=1.0E-10  NC=1.7  RB=0.1  RE=0.023  RC=0.010 
    +               CJC=90.36E-12  CJE=547.5E-12  MJC=0.385  MJE=0.357
    +               VJC=0.5 VJE=0.741  TF=600E-12  TR=8E-9
    *
    *$
    *

=========================================================================================================

[ZXTN25040DFH]
*ZETEX ZXTN25040DFH Spice Model v1.0 Last revision 01/06/07
    *
    .MODEL ZXTN25040DFH NPN IS=5.1E-13 BF=480 NF=1 VAF=99 IKF=3.3 ISE=1.2E-13
    +NE=1.49 BR=65 NR=1 VAR=24 IKR=1 ISC=1.1E-13 NC=1.31 RE=0.0115 RB=0.15 RC=0.012
    +CJE=192E-12 VJE=0.75 MJE=0.38 CJC=35E-12 VJC=0.47 MJC=0.34 TF=0.62E-9 TR=20E-9
    +RCO=1.9 GAMMA=1E-8 QUASIMOD=1 XTB=1.35 TRE1=0.005 TRB1=0.005 TRC1=0.005
    *
    *$
    *

=========================================================================================================

[FCX1051A]
*ZETEX FCX1051A Spice Model v1.0 Last Revised 3/1/03
    *
    .MODEL FCX1051A  NPN IS=1.35E-12  NF=1.0  BF=600  IKF=5.0  VAF=120
    +               ISE=0.6E-13  NE=1.25  NR=1.0  BR=150  IKR=3  VAR=15
    +               ISC=1.0E-10  NC=1.7  RB=0.1  RE=0.023  RC=0.010 
    +               CJC=90.36E-12  CJE=547.5E-12  MJC=0.385  MJE=0.357
    +               VJC=0.5 VJE=0.741  TF=600E-12  TR=8E-9
    *
    *$
    *

=========================================================================================================

[DSS4240T]
*
*DIODES_INC_SPICE_MODEL
*ORIGIN=DZSL_DPG_GM
*SIMULATOR=PSPICE
*DATE=13OCT2010
*VERSION=1
*
.MODEL DSS4240T NPN IS=6.8E-13 BF=700 NF=1.005 VAF=100 IKF=2.8
+ ISE=6E-14 NE=1.4 BR=42 NR=1 VAR=14 IKR=1 ISC=4.8E-13 NC=1.44
+ RE=0.02 RB=1 RC=0.032 CJE=141E-12 VJE=0.84 MJE=0.4 CJC=31E-12
+ VJC=0.55 MJC=0.4 TF=0.59E-9 TR=6E-9 RCO=1.7 GAMMA=3E-8
+ QUASIMOD=1 XTB=1.35 TRE1=0.0045 TRB1=0.0035 TRC1=0.0045
*
*$

=========================================================================================================

[DSS4240V]
*
*DIODES_INC_SPICE_MODEL
*ORIGIN=DZSL_DPG_GM
*SIMULATOR=PSPICE
*DATE=13OCT2010
*VERSION=2
*
.MODEL DSS4240V NPN IS=6.8E-13 BF=700 NF=1.005 VAF=100 IKF=2.8
+ ISE=6E-14 NE=1.4 BR=42 NR=1 VAR=14 IKR=1 ISC=4.8E-13 NC=1.44
+ RE=0.02 RB=1 RC=0.032 CJE=141E-12 VJE=0.84 MJE=0.4 CJC=31E-12
+ VJC=0.55 MJC=0.4 TF=0.59E-9 TR=6E-9 RCO=1.7 GAMMA=3E-8
+ QUASIMOD=1 XTB=1.35 TRE1=0.0045 TRB1=0.0035 TRC1=0.0045
*
*$

=========================================================================================================

[ZXTN25040DFL]
*ZETEX ZXTN25040DFL Spice Model v1.0 Last revision 01/06/07
    *
    .MODEL ZXTN25040DFL NPN IS=5.1E-13 BF=480 NF=1 VAF=99 IKF=3.3 ISE=1.2E-13
    +NE=1.49 BR=65 NR=1 VAR=24 IKR=1 ISC=1.1E-13 NC=1.31 RE=0.0115 RB=0.15 RC=0.012
    +CJE=192E-12 VJE=0.75 MJE=0.38 CJC=35E-12 VJC=0.47 MJC=0.34 TF=0.62E-9 TR=20E-9
    +RCO=1.9 GAMMA=1E-8 QUASIMOD=1 XTB=1.35 TRE1=0.005 TRB1=0.005 TRC1=0.005
    *
    *$
    *

=========================================================================================================

[FZT491A]
*ZETEX FZT491A Spice Model v1.0 Last Revised 8/8/05
    *
    .MODEL FZT491A NPN IS =3.05E-13 NF =1.0034 BF =650 IKF=0.8 VAF=165
    +ISE=8.0191E-14 NE =1.4126 NR =1.001 BR =120 IKR=0.6 VAR=69 
    +ISC=1.6E-12 NC =1.38 RB =0.065 RE =0.109 RC =0.075 
    +CJC=17.2E-12 MJC=0.3429 VJC=0.4298 CJE=96E-12 
    +TF =0.71E-9 TR =2.5E-9
    *
    *$
    *

=========================================================================================================

[FCX491A]
*ZETEX FCX491 Spice Model v1.0 Last Revised 8/8/05
    *
    .MODEL FCX491 NPN IS=3.05E-13 NF=1.0034 BF=200 IKF=0.8 VAF=165
    +ISE=8.0191E-14 NE=1.4126 NR=1.001 BR=50 IKR=0.6 VAR=69 
    +ISC=1.6E-12 NC=1.38 RB=0.065 RE=0.109 RC=0.075 
    +CJC=17.2E-12 MJC=0.3429 VJC=0.4298 CJE=96E-12 
    +TF=0.71E-9 TR=2.5E-9
    *
    *$
    *

=========================================================================================================

[FMMT491A]
*ZETEX FMMT491 Spice Model v1.0 Last Revised 8/8/05
    *
    .MODEL FMMT491 NPN IS=3.05E-13 NF=1.0034 BF=200 IKF=0.8 VAF=165
    +ISE=8.0191E-14 NE=1.4126 NR=1.001 BR=50 IKR=0.6 VAR=69 
    +ISC=1.6E-12 NC=1.38 RB=0.065 RE=0.109 RC=0.075 
    +CJC=17.2E-12 MJC=0.3429 VJC=0.4298 CJE=96E-12 
    +TF=0.71E-9 TR=2.5E-9
    *
    *$
    *

=========================================================================================================

[ZXTN2040F]
*ZETEX ZXTN2040F Spice Model v1.0 Last Revised 10/03/06
    *
    .MODEL ZXTN2040F NPN IS =3.05E-13 NF =1.0034 BF =650 IKF=0.8 VAF=165
    +ISE=8.0191E-14 NE =1.4126 NR =1.001 BR =120 IKR=0.6 VAR=69 
    +ISC=1.6E-12 NC =1.38 RB =0.065 RE =0.109 RC =0.075 
    +CJC=17.2E-12 MJC=0.3429 VJC=0.4298 CJE=96E-12 
    +TF =0.71E-9 TR =2.5E-9
    *
    *$
    *

=========================================================================================================

[DSS4140U]
*
*DIODES_INC_SPICE_MODEL
*ORIGIN=DZSL_DPG_GM
*SIMULATOR=PSPICE
*DATE=13OCT2010
*VERSION=2
*
.MODEL DSS4140U NPN IS=6.8E-13 BF=700 NF=1.005 VAF=100 IKF=2.8
+ ISE=6E-14 NE=1.4 BR=42 NR=1 VAR=14 IKR=1 ISC=4.8E-13 NC=1.44
+ RE=0.02 RB=1 RC=0.032 CJE=141E-12 VJE=0.84 MJE=0.4 CJC=31E-12
+ VJC=0.55 MJC=0.4 TF=0.59E-9 TR=6E-9 RCO=1.7 GAMMA=3E-8
+ QUASIMOD=1 XTB=1.35 TRE1=0.0045 TRB1=0.0035 TRC1=0.0045
*
*$

=========================================================================================================

[DSS4140V]
*
*DIODES_INC_SPICE_MODEL
*ORIGIN=DZSL_DPG_GM
*SIMULATOR=PSPICE
*DATE=13OCT2010
*VERSION=2
*
.MODEL DSS4140V NPN IS=6.8E-13 BF=700 NF=1.005 VAF=100 IKF=2.8
+ ISE=6E-14 NE=1.4 BR=42 NR=1 VAR=14 IKR=1 ISC=4.8E-13 NC=1.44
+ RE=0.02 RB=1 RC=0.032 CJE=141E-12 VJE=0.84 MJE=0.4 CJC=31E-12
+ VJC=0.55 MJC=0.4 TF=0.59E-9 TR=6E-9 RCO=1.7 GAMMA=3E-8
+ QUASIMOD=1 XTB=1.35 TRE1=0.0045 TRB1=0.0035 TRC1=0.0045
*
*$

=========================================================================================================

[ZXTN07045EFF]
*ZETEX ZXTN07045EFF Spice Model v1.0 Last revision 13/07/07
    *
    .MODEL ZXTN07045EFF NPN IS=1.5E-12 NF=1 BF=1160 IKF=4 VAF=60 ISE=4E-13 NE=1.37 
    +NR=1 BR=123 IKR=1 VAR=14.5 ISC=4E-13 NC=1.34 RB=0.1 RE=0.022 RC=0.015  +CJE=250E-12 VJE=0.68 MJE=0.36 CJC=59E-12 VJC=0.49 MJC=0.36 TF=0.6E-9
    +TR=9E-9 RCO=0.75 GAMMA=5E-9 QUASIMOD=1 XTB=1.4 TRE1=0.004 TRB1=0.004
    +TRC1=0.004
    *
    *$
    *

=========================================================================================================

[ZXT690BK]
*ZETEX ZXT690BK Spice Model v1.0 Last revision 13/07/07
    *
    .MODEL ZXT690BK NPN IS=1.5E-12 NF=1 BF=1000 IKF=3 VAF=60 ISE=4E-13 NE=1.37 
    +NR=1 BR=123 IKR=1 VAR=14.5 ISC=4E-13 NC=1.34 RB=0.1 RE=0.045 RC=0.027 
    +CJE=250E-12 VJE=0.68 MJE=0.36 CJC=59E-12 VJC=0.49 MJC=0.36 TF=0.77E-9
    +TR=18E-9 RCO=0.93 GAMMA=5E-9 QUASIMOD=1 XTB=1.4 TRE1=0.002 TRB1=0.002 
    +TRC1=0.002 
    *
    *$
    *

=========================================================================================================

[DXT690BP5]
*
*DIODES_INC_SPICE_MODEL
*ORIGIN=DZSL_DPG_IM
*SIMULATOR=PSPICE
*DATE=21Oct2013
*VERSION=1
*

.MODEL DXT690BP5 NPN IS=1.5E-12 NF=1 BF=1000 IKF=3 VAF=60 ISE=4E-13 NE=1.37 
+NR=1 BR=123 IKR=1 VAR=14.5 ISC=4E-13 NC=1.34 RB=0.1 RE=0.045 RC=0.027 
+CJE=250E-12 VJE=0.68 MJE=0.36 CJC=59E-12 VJC=0.49 MJC=0.36 TF=0.77E-9
+TR=18E-9 RCO=0.93 GAMMA=5E-9 QUASIMOD=1 XTB=1.4 TRE1=0.002 TRB1=0.002 
+TRC1=0.002 

*
*                (c)  2013 Diodes Inc
*
*   The copyright in these models  and  the designs embodied belong
*   to Diodes Incorporated (" Zetex ").  They  are  supplied
*   free of charge by Zetex for the purpose of research and design
*   and may be used or copied intact  (including this notice)  for
*   that purpose only.  All other rights are reserved.  The models
*   are believed accurate but no condition  or warranty  as to their
*   merchantability or fitness for purpose is given and no liability
*   in respect of any use is accepted by Diodes Incorporated, its distributors
*   or agents.
*
*   Diodes Zetex Semiconductors Ltd, Zetex Technology Park, Chadderton,
*   Oldham, United Kingdom, OL9 9LL
*

=========================================================================================================

[FZT690B]
*ZETEX FZT690B Spice Model v2.0 Last revision 12/07/07
    *
    .MODEL FZT690B NPN IS=1.5E-12 NF=1 BF=1000 IKF=3 VAF=60 ISE=4E-13 NE=1.37 
    +NR=1 BR=123 IKR=1 VAR=14.5 ISC=4E-13 NC=1.34 RB=0.1 RE=0.045 RC=0.027 
    +CJE=250E-12 VJE=0.68 MJE=0.36 CJC=59E-12 VJC=0.49 MJC=0.36 TF=0.77E-9
    +TR=18E-9 RCO=0.93 GAMMA=5E-9 QUASIMOD=1 XTB=1.4 TRE1=0.002 TRB1=0.002 
    +TRC1=0.002 
    *
    *$
    *

=========================================================================================================

[FCX690B]
*ZETEX FCX690B Spice Model v2.0 Last revision 12/07/07
    *
    .MODEL FCX690B NPN IS=1.5E-12 NF=1 BF=1000 IKF=3 VAF=60 ISE=4E-13 NE=1.37 
    +NR=1 BR=123 IKR=1 VAR=14.5 ISC=4E-13 NC=1.34 RB=0.1 RE=0.045 RC=0.027 
    +CJE=250E-12 VJE=0.68 MJE=0.36 CJC=59E-12 VJC=0.49 MJC=0.36 TF=0.77E-9
    +TR=18E-9 RCO=0.93 GAMMA=5E-9 QUASIMOD=1 XTB=1.4 TRE1=0.002 TRB1=0.002 
    +TRC1=0.002 
    *
    *$
    *

=========================================================================================================

[ZTX690B]
*ZETEX ZTX690B Spice Model v2.0 Last revision 12/07/07
    *
    .MODEL ZTX690B NPN IS=1.5E-12 NF=1 BF=1000 IKF=3 VAF=60 ISE=4E-13 NE=1.37 
    +NR=1 BR=123 IKR=1 VAR=14.5 ISC=4E-13 NC=1.34 RB=0.1 RE=0.045 RC=0.027 
    +CJE=250E-12 VJE=0.68 MJE=0.36 CJC=59E-12 VJC=0.49 MJC=0.36 TF=0.77E-9
    +TR=18E-9 RCO=0.93 GAMMA=5E-9 QUASIMOD=1 XTB=1.4 TRE1=0.002 TRB1=0.002 
    +TRC1=0.002 
    *
    *$
    *

=========================================================================================================

[ZTX450]
*ZETEX ZTX450 Spice Model v1.0 Last Revised 1/4/90
    *
    .MODEL ZTX450 NPN IS =3.941445E-14 BF =175 VAF=109.45 NF =1 IKF=.8
    +ISE=7.4025E-15 NE =1.3 BR =20.5 VAR=14.25 NR =.974 IKR=.1 ISC=3.157E-13
    +NC =1.2 RB =1.1 RE =.1259 RC =.0539 CJE=63E-12 TF =.75E-9 CJC=15.8E-12
    +TR =85E-9 VJC=.505 MJC=.39
    *
    *$
    *

=========================================================================================================

[ZXTN2031F]
*ZETEX ZXTN2031F Spice Model v1.0 Last Revised 01/11/05
    *
    .MODEL ZXTN2031F NPN IS =3E-13 BF =380 VAF=100 IKF=2.5 ISE=1.1E-13 NE =1.37 
    +BR =100 VAR=28 NR =.972 IKR=0.8 ISC=6.5E-13 NC =1.372 RB =0.2 RE =.015 
    +RC =.015 CJE=250E-12 TF =1E-9 CJC=50E-12 TR =10E-9
    *
    *$
    *

=========================================================================================================

[ZXTN25050DFH]
*ZETEX ZXTN25050DFH Spice Model v1.0 Last Revised 09/10/07
    *
    .MODEL ZXTN25050DFH NPN IS=5E-13 NF=1 BF=520 IKF=5.6 VAF=115 ISE=1.1E-13
    + NE=1.38 NR=1 BR=22 IKR=1 VAR=65 ISC=3E-13 NC=1.25 RB=0.2 RE=0.00125
    + RC=0.00128 CJC=35.5E-12 MJC=0.32 VJC=0.45 CJE=183E-12 MJE=0.38 VJE=0.75
    + TF=5.7E-10 TR=5.3E-8 XTB=1.4 TRC1=.01 TRB1=.01 TRE1=.01 QUASIMOD=1
    + RCO=1.7 GAMMA=1.2E-8
    *
    *$
    *

=========================================================================================================

[ZXTN619MA]
*
*DIODES_INC_SPICE_MODEL
*ORIGIN=DZSL_DPG_GM
*SIMULATOR=PSPICE
*DATE=27JAN2011
*VERSION=1
*
.MODEL ZXTN619MA NPN IS=5.8032E-13 NF=1.0027 BF=485 IKF=2.2 VAF=84
+ ISE=1.5933E-13 NE=1.4148 NR=1.0006 BR=110 IKR=1.4 
+ VAR=51 ISC=5E-12 NC=1.45 RB=0.042 RE=0.033 
+ RC=0.0375 CJC=40E-12 MJC=0.3708 VJC=0.4347 CJE=217E-12 
+ TF=0.78E-9 TR=9E-9
*
*$

=========================================================================================================

[ZXT10N50DE6]
*ZETEX ZXT10N50DE6 Spice Model v1.0 Last Revised 25/11/02
    *
    .MODEL ZXT10N50DE6  NPN IS =5.8032E-13 NF =1.0027 BF =485 IKF=2.2 VAF=84
    +               ISE=1.5933E-13 NE =1.4148 NR =1.0006 BR =110 IKR=1.4 
    +               VAR=51 ISC=5E-12 NC =1.45 RB =0.042 RE =0.033 
    +               RC =0.0375 CJC=40E-12 MJC=0.3708 VJC=0.4347 CJE=217E-12 
    +               TF =0.78E-9 TR =9E-9
    *
    *$
    *

=========================================================================================================

[FCX619]
*ZETEX FCX619 Spice Model v1.0 Last Revised 25/11/02
    *
    .MODEL FCX619  NPN IS =5.8032E-13 NF =1.0027 BF =485 IKF=2.2 VAF=84
    +               ISE=1.5933E-13 NE =1.4148 NR =1.0006 BR =110 IKR=1.4 
    +               VAR=51 ISC=5E-12 NC =1.45 RB =0.042 RE =0.033 
    +               RC =0.0375 CJC=40E-12 MJC=0.3708 VJC=0.4347 CJE=217E-12 
    +               TF =0.78E-9 TR =9E-9
    *
    *$
    *

=========================================================================================================

[2DC4672]
*
*DIODES_INC_SPICE_MODEL
*ORIGIN=DZSL_DPG
*SIMULATOR=PSPICE
*DATE=09/01/2009
*VERSION=1
*
.MODEL 2DC4672 NPN IS=2.218E-13 NF=.9956 BF=230 IKF=2 VAF=100 ISE=2.9E-14
+ NE=1.35 NR=.995 BR=56 IKR=1 VAR=30 ISC=2.971E-13 NC=1.321 RB=.04
+ RE=.075 RC=.069 CJC=51E-12 MJC=.42 VJC=.595 CJE=318E-12 TF=.77E-9
+ TR=27E-9
*
*$

=========================================================================================================

[FMMT619]
*ZETEX FMMT619 Spice Model v1.0 Last Revised 8/7/93
    *
    .MODEL FMMT619  NPN IS =5.8032E-13 NF =1.0027 BF =485 IKF=2.2 VAF=84
    +               ISE=1.5933E-13 NE =1.4148 NR =1.0006 BR =110 IKR=1.4 
    +               VAR=51 ISC=5E-12 NC =1.45 RB =0.042 RE =0.033 
    +               RC =0.0375 CJC=40E-12 MJC=0.3708 VJC=0.4347 CJE=217E-12 
    +               TF =0.78E-9 TR =9E-9
    *
    *$
    *

=========================================================================================================

[ZUMT619]
*ZETEX ZUMT619 Spice Model v1.0 Last Revised 24/1/03
    *
    .MODEL ZUMT619 NPN IS =2.61E-13 BF =550 IKF=0.99 VAF=84
    +ISE=7.17E-14 NE =1.4148 BR =110 IKR=0.63 VAR=51 ISC=2.25E-12 
    +NC =1.45 RB =0.093 RE =0.073 RC =0.083 CJC=18E-12 MJC=0.371 
    +VJC=0.435 CJE=97.7E-12 TF =0.78E-9 TR =9E-9
    *
    *$
    *

=========================================================================================================

[2DC2412R]
*SRC=2DC2412R;DI_2DC2412R;BJTs NPN; Si;  50.0V  0.150A  200MHz   Diodes Inc. Bipolar Transistor
.MODEL DI_2DC2412R  NPN (IS=15.5f NF=1.00 BF=524 VAF=127
+ IKF=54.7m ISE=3.90p NE=2.00 BR=4.00 NR=1.00
+ VAR=28.0 IKR=0.135 RE=0.290 RB=1.16 RC=0.116
+ XTB=1.5 CJE=22.7p VJE=1.10 MJE=0.500 CJC=7.34p VJC=0.300
+ MJC=0.300 TF=698p TR=121n EG=1.12 )

=========================================================================================================

[2DC4617QLP]
*SRC=2DC4617QLP;DI_2DC4617QLP;BJTs NPN; Si;  50.0V  0.100A  200MHz    
.MODEL DI_2DC4617QLP  NPN (IS=1.21f NF=1.00 BF=202 VAF=127
+ IKF=98.0m ISE=5.55f NE=2.00 BR=4.00 NR=1.00
+ VAR=20.0 IKR=0.150 RE=0.575 RB=2.30 RC=0.230
+ XTB=1.5 CJE=15.6p VJE=1.10 MJE=0.500 CJC=6.12p VJC=0.300
+ MJC=0.300 TF=765p TR=126n EG=1.12 )

=========================================================================================================

[2DC4617R]
*SRC=2DC4617R;DI_2DC4617R;BJTs NPN; Si;  50.0V  0.150A  200MHz   Diodes Inc. Bipolar Transistor
.MODEL DI_2DC4617R  NPN (IS=15.5f NF=1.00 BF=524 VAF=127
+ IKF=54.7m ISE=3.90p NE=2.00 BR=4.00 NR=1.00
+ VAR=28.0 IKR=0.135 RE=0.290 RB=1.16 RC=0.116
+ XTB=1.5 CJE=22.7p VJE=1.10 MJE=0.500 CJC=7.34p VJC=0.300
+ MJC=0.300 TF=698p TR=121n EG=1.12 )

=========================================================================================================

[2DD2656]
*
*DIODES_INC_SPICE_MODEL
*ORIGIN=DZSL_DPG
*SIMULATOR=PSPICE
*DATE=08/01/2009
*VERSION=1
*
.MODEL 2DD2656 NPN IS=2.61E-13 BF=550 IKF=0.99 VAF=84
+ ISE=7.17E-14 NE=1.4148 BR=110 IKR=0.63 VAR=51 ISC=2.25E-12 
+ NC=1.45 RB=0.093 RE=0.073 RC=0.083 CJC=18E-12 MJC=0.371 
+ VJC=0.435 CJE=97.7E-12 TF=0.78E-9 TR=9E-9
*
*$

=========================================================================================================

[DNLS350E]
*SRC=DNLS350E;DI_DNLS350E;BJTs NPN; Si;  50.0V  3.00A  220MHz    
.MODEL DI_DNLS350E  NPN (IS=11.7f NF=1.00 BF=388 VAF=127
+ IKF=2.97 ISE=8.95f NE=2.00 BR=4.00 NR=1.00
+ VAR=20.0 IKR=4.50 RE=23.8m RB=95.3m RC=9.53m
+ XTB=1.5 CJE=341p VJE=1.10 MJE=0.500 CJC=45.4p VJC=0.300
+ MJC=0.300 TF=574p TR=111n EG=1.12 )

=========================================================================================================

[DNLS350Y]
*SRC=DNLS350Y;DI_DNLS350Y;BJTs NPN; Si;  50.0V  3.00A  220MHz    
.MODEL DI_DNLS350Y  NPN (IS=11.7f NF=1.00 BF=388 VAF=127
+ IKF=2.97 ISE=8.95f NE=2.00 BR=4.00 NR=1.00
+ VAR=20.0 IKR=4.50 RE=23.8m RB=95.3m RC=9.53m
+ XTB=1.5 CJE=341p VJE=1.10 MJE=0.500 CJC=45.4p VJC=0.300
+ MJC=0.300 TF=574p TR=111n EG=1.12 )

=========================================================================================================

[DSS30101L]
*
*DIODES_INC_SPICE_MODEL
*ORIGIN=DZSL_DPG_GM
*SIMULATOR=PSPICE
*DATE=13OCT2010
*VERSION=1
*
.MODEL DSS30101L NPN IS=6.8E-13 BF=700 NF=1.005 VAF=100 IKF=2.8
+ ISE=6E-14 NE=1.4 BR=42 NR=1 VAR=14 IKR=1 ISC=4.8E-13 NC=1.44
+ RE=0.02 RB=1 RC=0.032 CJE=141E-12 VJE=0.84 MJE=0.4 CJC=31E-12
+ VJC=0.55 MJC=0.4 TF=0.59E-9 TR=6E-9 RCO=1.7 GAMMA=3E-8
+ QUASIMOD=1 XTB=1.35 TRE1=0.0045 TRB1=0.0035 TRC1=0.0045
*
*$

=========================================================================================================

[DXT2222A]
*SRC=DXT2222A;DI_DXT2222A;BJTs NPN; Si;  40.0V  0.600A  410MHz    -
.MODEL DI_DXT2222A  NPN (IS=9.69f NF=1.00 BF=272 VAF=114
+ IKF=0.493 ISE=11.7f NE=2.00 BR=4.00 NR=1.00
+ VAR=24.0 IKR=0.750 RE=0.253 RB=1.01 RC=0.101
+ XTB=1.5 CJE=29.0p VJE=1.10 MJE=0.500 CJC=14.7p VJC=0.300
+ MJC=0.300 TF=362p TR=60.3n EG=1.12 )

=========================================================================================================

[BC817-16]
*SRC=BC817-16;DI_BC817-16;BJTs NPN; Si;  45.0V  0.800A  220MHz   Diodes
Inc. BJTs
.MODEL DI_BC817-16  NPN (IS=4.04n NF=1.00 BF=342 VAF=121
+ IKF=0.273 ISE=6.86n NE=2.00 BR=4.00 NR=1.00
+ VAR=20.0 IKR=0.675 RE=0.227 RB=0.907 RC=90.7m
+ XTB=1.5 CJE=107p VJE=1.10 MJE=0.500 CJC=34.7p VJC=0.300 MJC=0.300 
+ TF=651p TR=111n EG=1.12 )

=========================================================================================================

[BC817-25]
*SRC=BC817-25;DI_BC817-25;BJTs NPN; Si;  45.0V  0.800A  220MHz   Diodes
Inc. BJTs
.MODEL DI_BC817-25  NPN (IS=4.04n NF=1.00 BF=548 VAF=121
+ IKF=0.273 ISE=4.29n NE=2.00 BR=4.00 NR=1.00
+ VAR=20.0 IKR=0.675 RE=0.227 RB=0.907 RC=90.7m
+ XTB=1.5 CJE=107p VJE=1.10 MJE=0.500 CJC=34.7p VJC=0.300 MJC=0.300 
+ TF=651p TR=109n EG=1.12 )

=========================================================================================================

[BC817-40]
*SRC=BC817-40;DI_BC817-40;BJTs NPN; Si;  45.0V  0.800A  220MHz   Diodes
Inc. BJTs
.MODEL DI_BC817-40  NPN (IS=4.04n NF=1.00 BF=822 VAF=121
+ IKF=0.273 ISE=2.86n NE=2.00 BR=4.00 NR=1.00
+ VAR=20.0 IKR=0.675 RE=0.227 RB=0.907 RC=90.7m
+ XTB=1.5 CJE=107p VJE=1.10 MJE=0.500 CJC=34.7p VJC=0.300 MJC=0.300 
+ TF=651p TR=108n EG=1.12 )

=========================================================================================================

[BC817-16W]
*SRC=BC807-16W;DI_BC807-16W;BJTs PNP; Si;  45.0V  0.500A  163MHz   Diodes Inc. PNP BJT
.MODEL DI_BC807-16W  NPN (IS=49.9f NF=1.00 BF=342 VAF=121
+ IKF=0.182 ISE=19.6p NE=2.00 BR=4.00 NR=1.00
+ VAR=20.0 IKR=0.450 RE=0.663 RB=2.65 RC=0.265
+ XTB=1.5 CJE=107p VJE=1.10 MJE=0.500 CJC=34.7p VJC=0.300
+ MJC=0.300 TF=841p TR=112n EG=1.12

=========================================================================================================

[BC817-25W]
*SRC=BC807-25W;DI_BC807-25W;BJTs PNP; Si;  45.0V  0.500A  163MHz   Diodes Inc. PNP BJT
.MODEL DI_BC807-25W  NPN (IS=49.9f NF=1.00 BF=547 VAF=121
+ IKF=0.182 ISE=12.3p NE=2.00 BR=4.00 NR=1.00
+ VAR=20.0 IKR=0.450 RE=0.663 RB=2.65 RC=0.265
+ XTB=1.5 CJE=107p VJE=1.10 MJE=0.500 CJC=34.7p VJC=0.300
+ MJC=0.300 TF=841p TR=110n EG=1.12 )

=========================================================================================================

[BC817-40W]
*SRC=BC807-40W;DI_BC807-40W;BJTs PNP; Si;  45.0V  0.500A  163MHz   Diodes Inc. PNP BJT
.MODEL DI_BC807-40W  NPN (IS=49.9f NF=1.00 BF=821 VAF=121
+ IKF=0.182 ISE=8.17p NE=2.00 BR=4.00 NR=1.00
+ VAR=20.0 IKR=0.450 RE=0.663 RB=2.65 RC=0.265
+ XTB=1.5 CJE=107p VJE=1.10 MJE=0.500 CJC=34.7p VJC=0.300
+ MJC=0.300 TF=841p TR=109n EG=1.12 )

=========================================================================================================

[BC847A]
*SRC=BC847A;DI_BC847A;BJTs NPN; Si;  45.0V  0.100A  300MHz   Diodes Inc
BJTs
.MODEL DI_BC847A  NPN (IS=10.2f NF=1.00 BF=301 VAF=121
+ IKF=60.7m ISE=5.82p NE=2.00 BR=4.00 NR=1.00
+ VAR=24.0 IKR=0.150 RE=0.915 RB=3.66 RC=0.366
+ XTB=1.5 CJE=26.8p VJE=1.10 MJE=0.500 CJC=8.67p VJC=0.300 MJC=0.300 
+ TF=427p TR=50.3n EG=1.12 )

=========================================================================================================

[BC847B]
*SRC=BC847B;DI_BC847B;BJTs NPN; Si;  45.0V  0.100A  300MHz   Diodes, Inc. transistor
.MODEL DI_BC847B  NPN (IS=3.75f NF=1.00 BF=1.61k VAF=121
+ IKF=8.79m ISE=8.38p NE=2.00 BR=4.00 NR=1.00
+ VAR=24.0 IKR=90.0m RE=0.765 RB=3.06 RC=0.306
+ XTB=1.5 CJE=13.3p VJE=1.10 MJE=0.500 CJC=8.67p VJC=0.300
+ MJC=0.300 TF=520p TR=78.9n EG=1.12 )

=========================================================================================================

[BC847C]
*SRC=BC847C;DI_BC847C;BJTs NPN; Si;  45.0V  0.100A  300MHz   Diodes Inc
BJTs
.MODEL DI_BC847C  NPN (IS=10.3f NF=1.00 BF=1.09k VAF=121
+ IKF=60.7m ISE=1.61p NE=2.00 BR=4.00 NR=1.00
+ VAR=24.0 IKR=0.150 RE=0.965 RB=3.86 RC=0.386
+ XTB=1.5 CJE=26.8p VJE=1.10 MJE=0.500 CJC=8.67p VJC=0.300 MJC=0.300 
+ TF=427p TR=48.6n EG=1.12 )

=========================================================================================================

[BC848A]
*SRC=BC848A;DI_BC848A;BJTs NPN; Si;  30.0V  0.100A  300MHz   Diodes Inc
BJTs
.MODEL DI_BC848A  NPN (IS=10.2f NF=1.00 BF=1.09k VAF=98.6
+ IKF=60.7m ISE=1.60p NE=2.00 BR=4.00 NR=1.00
+ VAR=20.0 IKR=0.150 RE=0.915 RB=3.66 RC=0.366
+ XTB=1.5 CJE=26.8p VJE=1.10 MJE=0.500 CJC=8.67p VJC=0.300 MJC=0.300 
+ TF=427p TR=48.6n EG=1.12 )

=========================================================================================================

[BC848B]
*SRC=BC848B;DI_BC848B;BJTs NPN; Si;  30.0V  0.100A  300MHz   Diodes Inc
BJTs
.MODEL DI_BC848B  NPN (IS=10.2f NF=1.00 BF=616 VAF=98.6