*----------------------------------------------------------------------
* SPICE Model generated by Murata Manufacturing Co., Ltd.
* Copyright(C) Murata Manufacturing Co., Ltd.
* Description :3225M(1210)/X7R(-55to125[deg])/1.00e-02[uF]/1000[V]
* Murata P/N :GRM32QR73A103KW01
* Property : C = 1.00e-02[uF]
* Data Generated on Nov 26, 2021
*----------------------------------------------------------------------
* Applicable Conditions:
*   Frequency Range = 100[kHz]-6[GHz]
*   Temperature = 25 degC
*   DC Bias Voltage = 0V
*   Small Signal Operation
*----------------------------------------------------------------------
.SUBCKT GRM32QR73A103KW01 Port1 Port2
C01 Port1 N01 9.55e-09
R01 Port1 N01 1.00e+10
L02 N01 N02 2.00e-11
R03 N02 N03 4.96e-02
C04 N03 N04 4.87e-07
R04 N03 N04 5.45e+00
C05 N04 N05 8.05e-07
R05 N04 N05 3.95e-01
C06 N05 N06 6.13e-07
R06 N05 N06 7.64e-02
C07 N06 N07 2.81e-07
R07 N06 N07 2.57e-02
C08 N07 N08 1.30e-12
L08 N07 N08 3.04e-10
R08 N07 N08 1.99e+01
C09 N08 N09 7.61e-12
L09 N08 N09 1.41e-10
R09 N08 N09 8.72e+00
C10 N09 N10 1.76e-11
L10 N09 N10 1.03e-10
R10 N09 N10 9.43e+00
C11 N10 N11 6.45e-10
L11 N10 N11 5.78e-11
R11 N10 N11 1.90e-01
C12 N11 N12 6.88e-09
L12 N11 N12 3.38e-11
R12 N11 N12 1.46e-01
C13 N12 Port2 1.92e-08
L13 N12 Port2 3.86e-11
R13 N12 Port2 1.06e-01
.ENDS GRM32QR73A103KW01
