*----------------------------------------------------------------------
* SPICE Model generated by Murata Manufacturing Co., Ltd.
* Copyright(C) Murata Manufacturing Co., Ltd.
* Description :3225M(1210)/X7R(-55to125[deg])/3.30e-02[uF]/630[V]
* Murata P/N :GRM32DR72J333KW01
* Property : C = 3.30e-02[uF]
* Data Generated on Nov 26, 2021
*----------------------------------------------------------------------
* Applicable Conditions:
*   Frequency Range = 100[kHz]-6[GHz]
*   Temperature = 25 degC
*   DC Bias Voltage = 0V
*   Small Signal Operation
*----------------------------------------------------------------------
.SUBCKT GRM32DR72J333KW01 Port1 Port2
C01 Port1 N01 3.14e-08
R01 Port1 N01 3.03e+09
L02 N01 N02 1.20e-11
R03 N02 N03 2.20e-02
C04 N03 N04 2.20e-06
R04 N03 N04 1.20e+00
C05 N04 N05 2.84e-06
R05 N04 N05 1.12e-01
C06 N05 N06 2.84e-06
R06 N05 N06 2.95e-02
C07 N06 N07 1.73e-06
R07 N06 N07 9.18e-03
C08 N07 N08 1.49e-12
L08 N07 N08 1.79e-10
R08 N07 N08 1.87e+01
C09 N08 N09 4.23e-12
L09 N08 N09 2.17e-10
R09 N08 N09 1.44e+01
C10 N09 N10 1.34e-11
L10 N09 N10 1.90e-10
R10 N09 N10 1.70e+01
C11 N10 N11 3.83e-09
L11 N10 N11 6.13e-11
R11 N10 N11 9.91e-02
C12 N11 N12 2.80e-08
L12 N11 N12 5.36e-11
R12 N11 N12 1.02e-01
C13 N12 Port2 6.62e-08
L13 N12 Port2 6.29e-11
R13 N12 Port2 1.01e-01
.ENDS GRM32DR72J333KW01
