*----------------------------------------------------------------------
* SPICE Model generated by Murata Manufacturing Co., Ltd.
* Copyright(C) Murata Manufacturing Co., Ltd.
* Description :3225M(1210)/X7R(-55to125[deg])/6.80e-03[uF]/1000[V]
* Murata P/N :GRM32QR73A682KW01
* Property : C = 6.80e-03[uF]
* Data Generated on Nov 26, 2021
*----------------------------------------------------------------------
* Applicable Conditions:
*   Frequency Range = 100[kHz]-6[GHz]
*   Temperature = 25 degC
*   DC Bias Voltage = 0V
*   Small Signal Operation
*----------------------------------------------------------------------
.SUBCKT GRM32QR73A682KW01 Port1 Port2
C01 Port1 N01 6.63e-09
R01 Port1 N01 1.00e+10
L02 N01 N02 4.00e-11
R03 N02 N03 7.32e-02
C04 N03 N04 3.19e-07
R04 N03 N04 8.31e+00
C05 N04 N05 4.66e-07
R05 N04 N05 5.69e-01
C06 N05 N06 2.98e-07
R06 N05 N06 9.72e-02
C07 N06 N07 2.96e-07
R07 N06 N07 2.69e-02
C08 N07 N08 8.85e-13
L08 N07 N08 1.69e-10
R08 N07 N08 1.45e+01
C09 N08 N09 4.47e-12
L09 N08 N09 2.70e-10
R09 N08 N09 8.90e+00
C10 N09 N10 1.35e-11
L10 N09 N10 2.08e-10
R10 N09 N10 1.86e+01
C11 N10 N11 7.29e-09
L11 N10 N11 1.39e-11
R11 N10 N11 9.70e-02
C12 N11 Port2 2.63e-08
L12 N11 Port2 1.42e-11
R12 N11 Port2 8.01e-02
.ENDS GRM32QR73A682KW01
