*----------------------------------------------------------------------
* SPICE Model generated by Murata Manufacturing Co., Ltd.
* Copyright(C) Murata Manufacturing Co., Ltd.
* Description :2012M(0805)/X7R(-55to125[deg])/1.50e-03[uF]/250[V]
* Murata P/N :GRM21AR72E152KW01
* Property : C = 1.50e-03[uF]
* Data Generated on Nov 26, 2021
*----------------------------------------------------------------------
* Applicable Conditions:
*   Frequency Range = 100[kHz]-6[GHz]
*   Temperature = 25 degC
*   DC Bias Voltage = 0V
*   Small Signal Operation
*----------------------------------------------------------------------
.SUBCKT GRM21AR72E152KW01 Port1 Port2
C01 Port1 N01 1.55e-09
R01 Port1 N01 1.00e+10
L02 N01 N02 1.10e-10
R03 N02 N03 2.31e-01
C04 N03 N04 3.78e-08
R04 N03 N04 8.42e+01
C05 N04 N05 1.08e-07
R05 N04 N05 2.11e+00
C06 N05 N06 7.77e-08
R06 N05 N06 4.66e-01
C07 N06 N07 2.06e-08
R07 N06 N07 1.93e-01
L08 N07 N08 3.90e-11
R08 N07 N08 3.23e-01
C09 N08 N09 3.64e-12
L09 N08 N09 7.44e-11
R09 N08 N09 1.75e+01
C10 N09 N10 4.66e-12
L10 N09 N10 1.25e-10
R10 N09 N10 1.22e+01
C11 N10 Port2 6.14e-12
L11 N10 Port2 3.37e-10
R11 N10 Port2 1.96e+01
.ENDS GRM21AR72E152KW01
