*----------------------------------------------------------------------
* SPICE Model generated by Murata Manufacturing Co., Ltd.
* Copyright(C) Murata Manufacturing Co., Ltd.
* Description :2012M(0805)/X7R(-55to125[deg])/1.50e-02[uF]/250[V]
* Murata P/N :GRM21BR72E153KW03
* Property : C = 1.50e-02[uF]
* Data Generated on Nov 26, 2021
*----------------------------------------------------------------------
* Applicable Conditions:
*   Frequency Range = 100[kHz]-6[GHz]
*   Temperature = 25 degC
*   DC Bias Voltage = 0V
*   Small Signal Operation
*----------------------------------------------------------------------
.SUBCKT GRM21BR72E153KW03 Port1 Port2
C01 Port1 N01 1.42e-08
R01 Port1 N01 6.67e+09
L02 N01 N02 1.19e-10
R03 N02 N03 6.13e-02
C04 N03 N04 7.69e-07
R04 N03 N04 1.68e+00
C05 N04 N05 7.15e-07
R05 N04 N05 1.22e-01
L06 N05 N06 9.43e-11
R06 N05 N06 1.39e-01
C07 N06 N07 3.83e-08
L07 N06 N07 2.11e-11
R07 N06 N07 3.91e-02
C08 N07 N08 9.53e-12
L08 N07 N08 2.30e-10
R08 N07 N08 1.69e+01
C09 N08 N09 6.93e-12
L09 N08 N09 1.23e-10
R09 N08 N09 1.06e+01
C10 N09 Port2 3.67e-12
L10 N09 Port2 1.09e-10
R10 N09 Port2 1.30e+01
.ENDS GRM21BR72E153KW03
