*----------------------------------------------------------------------
* SPICE Model generated by Murata Manufacturing Co., Ltd.
* Copyright(C) Murata Manufacturing Co., Ltd.
* Description :2012M(0805)/X7R(-55to125[deg])/4.70e-03[uF]/250[V]
* Murata P/N :GRM21AR72E472KW01
* Property : C = 4.70e-03[uF]
* Data Generated on Nov 26, 2021
*----------------------------------------------------------------------
* Applicable Conditions:
*   Frequency Range = 100[kHz]-6[GHz]
*   Temperature = 25 degC
*   DC Bias Voltage = 0V
*   Small Signal Operation
*----------------------------------------------------------------------
.SUBCKT GRM21AR72E472KW01 Port1 Port2
C01 Port1 N01 4.66e-09
R01 Port1 N01 1.00e+10
L02 N01 N02 1.05e-10
R03 N02 N03 1.25e-01
C04 N03 N04 2.04e-07
R04 N03 N04 1.30e+01
C05 N04 N05 3.67e-07
R05 N04 N05 6.67e-01
C06 N05 N06 2.83e-07
R06 N05 N06 1.65e-01
C07 N06 N07 1.69e-07
R07 N06 N07 4.28e-02
L08 N07 N08 5.07e-11
R08 N07 N08 3.19e-01
C09 N08 N09 3.55e-12
L09 N08 N09 7.63e-11
R09 N08 N09 1.79e+01
C10 N09 N10 3.17e-12
L10 N09 N10 1.68e-10
R10 N09 N10 1.41e+01
C11 N10 N11 8.17e-12
L11 N10 N11 2.20e-10
R11 N10 N11 1.63e+01
C12 N11 Port2 5.20e-09
L12 N11 Port2 2.14e-11
R12 N11 Port2 1.02e-01
.ENDS GRM21AR72E472KW01
