*----------------------------------------------------------------------
* SPICE Model generated by Murata Manufacturing Co., Ltd.
* Copyright(C) Murata Manufacturing Co., Ltd.
* Description :2012M(0805)/X7R(-55to125[deg])/1.00e-03[uF]/250[V]
* Murata P/N :GRM21AR72E102KW01
* Property : C = 1.00e-03[uF]
* Data Generated on Nov 26, 2021
*----------------------------------------------------------------------
* Applicable Conditions:
*   Frequency Range = 100[kHz]-6[GHz]
*   Temperature = 25 degC
*   DC Bias Voltage = 0V
*   Small Signal Operation
*----------------------------------------------------------------------
.SUBCKT GRM21AR72E102KW01 Port1 Port2
C01 Port1 N01 1.00e-09
R01 Port1 N01 1.00e+10
L02 N01 N02 1.00e-10
R03 N02 N03 2.66e-01
C04 N03 N04 1.81e-08
R04 N03 N04 1.76e+02
C05 N04 N05 6.46e-08
R05 N04 N05 2.46e+00
C06 N05 N06 3.69e-08
R06 N05 N06 4.80e-01
C07 N06 N07 1.05e-08
R07 N06 N07 1.89e-01
L08 N07 N08 5.86e-11
R08 N07 N08 2.46e-01
C09 N08 N09 2.90e-12
L09 N08 N09 9.34e-11
R09 N08 N09 2.19e+01
C10 N09 N10 4.87e-12
L10 N09 N10 1.09e-10
R10 N09 N10 1.18e+01
C11 N10 Port2 7.11e-12
L11 N10 Port2 2.72e-10
R11 N10 Port2 1.64e+01
.ENDS GRM21AR72E102KW01
