*----------------------------------------------------------------------
* SPICE Model generated by Murata Manufacturing Co., Ltd.
* Copyright(C) Murata Manufacturing Co., Ltd.
* Description :2012M(0805)/X7R(-55to125[deg])/3.30e-03[uF]/250[V]
* Murata P/N :GRM21AR72E332KW01
* Property : C = 3.30e-03[uF]
* Data Generated on Nov 26, 2021
*----------------------------------------------------------------------
* Applicable Conditions:
*   Frequency Range = 100[kHz]-6[GHz]
*   Temperature = 25 degC
*   DC Bias Voltage = 0V
*   Small Signal Operation
*----------------------------------------------------------------------
.SUBCKT GRM21AR72E332KW01 Port1 Port2
C01 Port1 N01 3.20e-09
R01 Port1 N01 1.00e+10
L02 N01 N02 1.10e-10
R03 N02 N03 1.43e-01
C04 N03 N04 1.22e-07
R04 N03 N04 2.61e+01
C05 N04 N05 2.28e-07
R05 N04 N05 1.27e+00
C06 N05 N06 1.85e-07
R06 N05 N06 2.52e-01
C07 N06 N07 8.55e-08
R07 N06 N07 8.46e-02
C08 N07 N08 1.36e-07
R08 N07 N08 1.95e-02
C09 N08 N09 2.70e-12
L09 N08 N09 1.56e-10
R09 N08 N09 1.47e+01
C10 N09 N10 3.84e-11
L10 N09 N10 1.83e-11
R10 N09 N10 4.43e+00
C11 N10 N11 5.10e-12
L11 N10 N11 3.63e-10
R11 N10 N11 2.17e+01
C12 N11 Port2 1.99e-09
L12 N11 Port2 2.59e-11
R12 N11 Port2 1.48e-01
.ENDS GRM21AR72E332KW01
