*----------------------------------------------------------------------
* SPICE Model generated by Murata Manufacturing Co., Ltd.
* Copyright(C) Murata Manufacturing Co., Ltd.
* Description :5750M(2220)/X7R(-55to125[deg])/1.00e+00[uF]/250[V]
* Murata P/N :GRM55DR72E105KW01
* Property : C = 1.00e+00[uF]
* Data Generated on Nov 26, 2021
*----------------------------------------------------------------------
* Applicable Conditions:
*   Frequency Range = 100[kHz]-3[GHz]
*   Temperature = 25 degC
*   DC Bias Voltage = 0V
*   Small Signal Operation
*----------------------------------------------------------------------
.SUBCKT GRM55DR72E105KW01 Port1 Port2
C01 Port1 N01 9.63e-07
R01 Port1 N01 1.00e+08
L02 N01 N02 1.00e-12
R03 N02 N03 6.00e-03
C04 N03 N04 2.40e-04
R04 N03 N04 2.21e+00
C05 N04 N05 9.30e-05
R05 N04 N05 8.56e-01
C06 N05 N06 3.76e-04
R06 N05 N06 8.46e-01
C07 N06 N07 1.29e-04
R07 N06 N07 9.46e-02
C08 N07 N08 1.27e-04
R08 N07 N08 2.50e-02
C09 N08 N09 3.30e-04
R09 N08 N09 6.03e-03
C10 N09 N10 8.21e-05
R10 N09 N10 2.77e-03
L11 N10 N11 1.83e-10
R11 N10 N11 4.87e-02
C12 N11 N12 3.24e-12
L12 N11 N12 3.89e-10
R12 N11 N12 5.17e+01
C13 N12 N13 2.67e-11
L13 N12 N13 9.56e-11
R13 N12 N13 9.43e+00
C14 N13 N14 5.39e-07
L14 N13 N14 8.16e-11
R14 N13 N14 2.11e-02
C15 N14 Port2 1.58e-06
L15 N14 Port2 9.47e-11
R15 N14 Port2 2.30e-02
.ENDS GRM55DR72E105KW01
