*----------------------------------------------------------------------
* SPICE Model generated by Murata Manufacturing Co., Ltd.
* Copyright(C) Murata Manufacturing Co., Ltd.
* Description :5750M(2220)/X7R(-55to125[deg])/4.70e-01[uF]/250[V]
* Murata P/N :GRM55DR72E474KW01
* Property : C = 4.70e-01[uF]
* Data Generated on Nov 26, 2021
*----------------------------------------------------------------------
* Applicable Conditions:
*   Frequency Range = 100[kHz]-6[GHz]
*   Temperature = 25 degC
*   DC Bias Voltage = 0V
*   Small Signal Operation
*----------------------------------------------------------------------
.SUBCKT GRM55DR72E474KW01 Port1 Port2
C01 Port1 N01 4.43e-07
R01 Port1 N01 2.13e+08
L02 N01 N02 1.00e-11
R03 N02 N03 5.50e-03
C04 N03 N04 3.68e-05
R04 N03 N04 5.41e-02
C05 N04 N05 3.76e-05
R05 N04 N05 6.04e-03
C06 N05 N06 1.23e-05
R06 N05 N06 2.69e-03
L07 N06 N07 1.98e-10
R07 N06 N07 6.00e-02
C08 N07 N08 8.87e-12
L08 N07 N08 2.65e-11
R08 N07 N08 2.85e+00
C09 N08 N09 4.29e-12
L09 N08 N09 3.35e-10
R09 N08 N09 5.07e+01
C10 N09 N10 2.18e-11
L10 N09 N10 1.59e-10
R10 N09 N10 1.14e+01
C11 N10 N11 3.68e-07
L11 N10 N11 5.61e-11
R11 N10 N11 2.35e-02
C12 N11 Port2 8.73e-07
L12 N11 Port2 7.63e-11
R12 N11 Port2 3.40e-02
.ENDS GRM55DR72E474KW01
