*----------------------------------------------------------------------
* SPICE Model generated by Murata Manufacturing Co., Ltd.
* Copyright(C) Murata Manufacturing Co., Ltd.
* Description :5750M(2220)/X7R(-55to125[deg])/2.20e-01[uF]/1000[V]
* Murata P/N :GRM55DR7LW224KW01
* Property : C = 2.20e-01[uF]
* Data Generated on Nov 26, 2021
*----------------------------------------------------------------------
* Applicable Conditions:
*   Frequency Range = 100[kHz]-6[GHz]
*   Temperature = 25 degC
*   DC Bias Voltage = 0V
*   Small Signal Operation
*----------------------------------------------------------------------
.SUBCKT GRM55DR7LW224KW01 Port1 Port2
C01 Port1 N01 2.07e-07
R01 Port1 N01 4.55e+08
L02 N01 N02 1.00e-12
R03 N02 N03 5.00e-03
C04 N03 N04 1.57e-05
R04 N03 N04 1.27e-01
C05 N04 N05 1.76e-05
R05 N04 N05 1.50e-02
C06 N05 N06 3.57e-06
R06 N05 N06 6.37e-03
L07 N06 N07 1.88e-10
R07 N06 N07 8.36e-02
C08 N07 N08 4.55e-12
L08 N07 N08 2.94e-10
R08 N07 N08 4.79e+01
C09 N08 N09 1.36e-11
L09 N08 N09 1.94e-10
R09 N08 N09 1.36e+01
C10 N09 N10 1.41e-07
L10 N09 N10 7.78e-11
R10 N09 N10 4.97e-02
C11 N10 Port2 3.65e-07
L11 N10 Port2 9.51e-11
R11 N10 Port2 6.84e-02
.ENDS GRM55DR7LW224KW01
