*----------------------------------------------------------------------
* SPICE Model generated by Murata Manufacturing Co., Ltd.
* Copyright(C) Murata Manufacturing Co., Ltd.
* MURATA P/N : LQW32FT220M0H
* Property : L = 22000[nH]
*----------------------------------------------------------------------
* Applicable Conditions:
*   Frequency Range = 1MHz - 20GHz
*   Temperature = 25 degC
*   DC Bias Current = 0 A
*   Small Signal Operation
*----------------------------------------------------------------------
.SUBCKT LQW32FT220M0H port1 port2
C1 port1 port2 2.98e-15
L2 port1 1 2.11e-5
R2 1 port2 5.50e-1
R3 port1 port2 2.99e+4
L4 port1 2 7.14e-4
R4 2 port2 2.25e+4
L5 port1 3 1.23e-4
R5 3 port2 1.37e+4
L6 port1 4 2.96e-5
R6 4 port2 3.63e+4
L7 port1 5 1.11e-5
C7 5 6 1.43e-14
R7 6 port2 6.60e+3
L8 port1 7 1.68e-6
C8 7 8 1.79e-14
R8 8 port2 2.35e+3
L9 port1 9 2.65e-7
C9 9 10 1.90e-14
R9 10 port2 511
L10 port1 11 6.15e-5
C10 11 12 2.37e-16
R10 12 port2 7.99e+3
L11 port1 13 9.53e-8
C11 13 14 2.79e-14
R11 14 port2 457
L12 port1 15 5.48e-8
C12 15 16 1.68e-14
R12 16 port2 457
L13 port1 17 6.59e-9
C13 17 18 5.07e-14
R13 18 port2 144
L14 port1 19 6.15e-10
C14 19 20 8.22e-14
R14 20 port2 34.6
.ENDS LQW32FT220M0H
*----------------------------------------------------------------------
