*----------------------------------------------------------------------
* SPICE Model generated by Murata Manufacturing Co., Ltd.
* Copyright(C) Murata Manufacturing Co., Ltd.
* MURATA P/N : LQW32FT4R7M0H
* Property : L = 4700[nH]
*----------------------------------------------------------------------
* Applicable Conditions:
*   Frequency Range = 1MHz - 20GHz
*   Temperature = 25 degC
*   DC Bias Current = 0 A
*   Small Signal Operation
*----------------------------------------------------------------------
.SUBCKT LQW32FT4R7M0H port1 port2
C1 port1 port2 4.73e-14
L2 port1 1 4.59e-6
R2 1 port2 2.50e-1
R3 port1 port2 1.19e+4
L4 port1 2 3.05e-4
R4 2 port2 3.82e+3
L5 port1 3 2.46e-5
R5 3 port2 2.17e+3
L6 port1 4 1.87e-6
R6 4 port2 4.56e+3
L7 port1 5 1.16e-5
C7 5 6 2.26e-15
R7 6 port2 6.76e+3
L8 port1 7 3.59e-7
C8 7 8 1.69e-14
R8 8 port2 1.44e+3
L9 port1 9 9.46e-8
C9 9 10 1.12e-14
R9 10 port2 722
L10 port1 11 1.16e-9
C10 11 12 8.67e-14
R10 12 port2 144
.ENDS LQW32FT4R7M0H
*----------------------------------------------------------------------
