*----------------------------------------------------------------------
* SPICE Model generated by Murata Manufacturing Co., Ltd.
* Copyright(C) Murata Manufacturing Co., Ltd.
* MURATA P/N : LQW32FT2R7M0H
* Property : L = 2700[nH]
*----------------------------------------------------------------------
* Applicable Conditions:
*   Frequency Range = 1MHz - 20GHz
*   Temperature = 25 degC
*   DC Bias Current = 0 A
*   Small Signal Operation
*----------------------------------------------------------------------
.SUBCKT LQW32FT2R7M0H port1 port2
C1 port1 port2 7.11e-14
L2 port1 1 2.52e-6
R2 1 port2 1.95e-1
R3 port1 port2 6.53e+3
L4 port1 2 1.53e-4
R4 2 port2 1.91e+3
L5 port1 3 1.86e-5
R5 3 port2 1.30e+3
L6 port1 4 1.15e-5
R6 4 port2 6.15e+3
L7 port1 5 7.28e-7
R7 5 port2 3.08e+3
L8 port1 6 1.39e-5
C8 6 7 1.08e-15
R8 7 port2 6.76e+3
L9 port1 8 1.72e-7
C9 8 9 1.69e-14
R9 9 port2 1.25e+3
L10 port1 10 2.27e-8
C10 10 11 1.85e-14
R10 11 port2 758
L11 port1 12 1.09e-9
C11 12 13 4.64e-14
R11 13 port2 186
.ENDS LQW32FT2R7M0H
*----------------------------------------------------------------------
